608
Properties=species:S:1:pos:R:3 pbc="F F F"
Si      -6.21763543       4.19875543      70.76233817
Si      -7.12215083      -1.95219856      71.16647479
Si       0.06010589      -9.28177109      71.17546411
Si      -0.17182786       8.11326719      71.08760009
Si       8.46856231      -0.14558941      71.23580634
Si       5.87158883       6.36863347      70.80700576
Si       7.05849057       1.49611146      70.76673769
Si       7.22614219      -4.68987045      70.92656660
Si      -2.16249492       9.03514257      70.76987627
Si      -8.49937755      -0.24629169      70.84042273
Si      -6.19995322       6.37685974      71.16113482
Si       0.98118172      -7.41053410      70.41705050
Si      -4.26769708      -7.50409309      70.81126303
Si       5.08849926      -5.27243480      71.01373820
Si       3.71717367       6.77212351      71.13689326
Si      -5.11042180      -5.48420462      71.16283074
Si       7.74604930       3.54406403       3.85520020
Si       5.86491772       4.66943881       3.52700561
Si       2.70867406       7.20176424       3.54495514
Si       1.14560931       8.73036246       3.91147487
Si      -3.55247973       8.57633747       3.53025327
Si      -3.59335890       6.48450901       4.27160250
Si      -6.34249790       2.87499952       3.60396689
Si      -7.99082022       1.40475919       3.79663177
Si      -6.56622492      -3.00763044       3.61144607
Si      -6.70049662      -5.20794739       3.83681184
Si      -3.42803698      -8.56881520       3.50599414
Si      -1.85017678      -7.19741111       4.25192854
Si       2.75843514      -6.89824020       3.65715226
Si       4.95315091      -7.19699901       3.75947101
Si       7.82221935      -3.47401510       3.43475083
Si       7.12447789      -1.42799132       3.91383009
Si       5.62138964       5.86568106       5.38736846
Si       3.93552737       7.31113996       5.39871936
Si      -0.23971498       8.04785916       5.50871772
Si      -2.46544764       8.04734733       5.43764575
Si      -5.25870685       5.81510920       5.59046285
Si      -6.72866030       4.16638901       5.37577437
Si      -7.49398648       0.01609842       5.45938852
Si      -7.68473292      -2.19581813       5.35767613
Si      -5.28362654      -5.75457402       5.45987725
Si      -3.77742994      -7.39347017       5.40251068
Si      -0.25405668      -7.99992026       5.58255745
Si       1.95557392      -8.05866422       5.37901752
Si       5.60591821      -5.90215933       5.44701535
Si       7.12424773      -4.28760373       5.39310387
Si       8.17339712      -0.09276055       5.35021945
Si       7.41642205       1.99684702       5.41631126
Si       2.95775811       7.71747698       7.35036520
Si       0.89440831       8.54095455       7.35737844
Si      -3.36071792       8.12677400       7.47426479
Si      -5.26497386       6.99168409       7.47154008
Si      -7.29369702       3.23165823       7.31324027
Si      -8.01400943       1.12998605       7.31077757
Si      -7.20399907      -3.15784931       7.30354463
Si      -6.40680501      -5.23125666       7.30653819
Si      -3.26265951      -8.12047387       7.44261864
Si      -1.15045356      -8.79306085       7.45144530
Si       2.99208518      -7.81059397       7.33128760
Si       5.01065135      -6.88311107       7.34930465
Si       7.32552215      -3.21751899       7.32839277
Si       8.09240491      -1.13485201       7.31223911
Si       7.42392459       3.14890386       7.31526912
Si       6.46478085       5.15101317       7.31192746
Si      -0.22355243       8.53770146       9.26529466
Si      -2.40927587       8.92852125       9.30205264
Si      -6.13012840       6.08915552       9.28758228
Si      -7.65459904       4.48597164       9.10397881
Si      -8.01104662      -0.07751336       9.16114578
Si      -8.23759841      -2.28348282       9.05571366
Si      -5.73247881      -6.12248330       9.21304118
Si      -4.55948721      -8.00804272       9.23016804
Si       0.04688124      -8.80925526       9.30249741
Si       2.26123962      -8.84653936       9.14973638
Si       5.75678993      -5.94150441       9.20369653
Si       7.44111266      -4.49775923       9.13018761
Si       8.08717297       0.06589684       9.16458709
Si       8.37886497       2.26498584       9.10490656
Si       5.67263495       6.01238416       9.18548050
Si       4.27309623       7.73374180       9.13223082
Si      -3.42890326       7.98056604      11.03031934
Si      -5.52838314       7.24966953      11.07706710
Si      -7.76161840       3.19571559      10.90460548
Si      -8.64422498       1.15655251      10.88915069
Si      -7.57255909      -3.31494523      10.90135419
Si      -6.97877819      -5.45586054      10.91975706
Si      -3.22361863      -8.12983637      10.99766955
Si      -1.25286234      -9.15704576      11.06430840
Si       3.20591738      -7.98945755      10.96371873
Si       5.27360412      -7.17764196      10.97785726
Si       7.54534353      -3.19681483      10.92217090
Si       8.53187392      -1.20653353      10.92262021
Si       7.59425369       3.29510527      10.90424585
Si       6.90546904       5.40755230      10.92461891
Si       3.04747653       7.89383847      10.97235906
Si       1.08138320       8.92784468      11.01376006
Si      -6.03397307       5.93862359      12.79246355
Si      -7.65560435       4.41951449      12.75018253
Si      -8.31917437      -0.08095626      12.69929058
Si      -8.42884875      -2.30007335      12.67631294
Si      -5.89712276      -6.08076727      12.75118465
Si      -4.45324591      -7.76861103      12.80648237
Si      -0.00468961      -8.62259402      12.81696885
Si       2.21535955      -8.72028927      12.80788221
Si       5.83465226      -5.98870518      12.76224731
Si       7.43960332      -4.45264034      12.74444376
Si       8.16332565       0.03777591      12.71884088
Si       8.33748056       2.25283732      12.71340687
Si       5.79073950       6.00367826      12.74511328
Si       4.33319823       7.68029565      12.76538204
Si      -0.13093618       8.48412194      12.81646351
Si      -2.34965961       8.58541683      12.86912405
Si      -7.74939604       3.10746594      14.53419795
Si      -8.72420760       1.11209166      14.52127659
Si      -7.69244465      -3.27763742      14.52316922
Si      -6.98619770      -5.38269598      14.54952001
Si      -3.17830185      -7.78668884      14.61743413
Si      -1.21048334      -8.81341339      14.66509783
Si       3.16526470      -7.81645543      14.59480338
Si       5.25548486      -7.06709309      14.60802089
Si       7.53623527      -3.17000074      14.54811465
Si       8.51515867      -1.17717175      14.53697059
Si       7.54344819       3.22731300      14.53752219
Si       6.88851404       5.34880739      14.55463026
Si       3.09635885       7.76007877      14.60199016
Si       1.09702654       8.72440944      14.64454956
Si      -3.26318289       7.62569962      14.64433537
Si      -5.36669529       6.91668287      14.66375901
Si      -8.41488684      -0.10371267      16.34778892
Si      -8.55372013      -2.31929049      16.32588012
Si      -5.90573391      -5.94499222      16.39950875
Si      -4.44083358      -7.61208535      16.42930508
Si      -0.00038050      -8.35862552      16.46320527
Si       2.21091937      -8.55009046      16.45505603
Si       5.83409823      -5.90607450      16.40431250
Si       7.48221117      -4.41905439      16.37678679
Si       8.18818499       0.03260516      16.36326715
Si       8.36996461       2.24490431      16.34324701
Si       5.81286702       5.93959358      16.39873501
Si       4.36147872       7.61925465      16.41577286
Si      -0.07776597       8.27102111      16.46701129
Si      -2.29436750       8.37857770      16.48830654
Si      -5.93772432       5.72519256      16.44106595
Si      -7.64674925       4.30984501      16.39244768
Si      -7.83051892      -3.29391941      18.17954939
Si      -7.07879807      -5.38290216      18.19270127
Si      -3.20118713      -7.69280529      18.26271998
Si      -1.21587785      -8.68622550      18.28575611
Si       3.18616193      -7.70653899      18.25649283
Si       5.29316116      -7.00657791      18.24894177
Si       7.64767431      -3.16255432      18.19374185
Si       8.63212332      -1.17254729      18.16794407
Si       7.64644488       3.23006618      18.19028759
Si       6.96423429       5.34299954      18.19517506
Si       3.13416091       7.70226446      18.25812494
Si       1.12395862       8.64405018      18.28997266
Si      -3.24950890       7.51111009      18.28850673
Si      -5.35804818       6.81650826      18.27904578
Si      -7.83022665       3.04603060      18.20274154
Si      -8.85638711       1.07748729      18.16960409
Si      -5.99181057      -5.94887523      20.03808806
Si      -4.48747238      -7.58174814      20.06262954
Si      -0.01114343      -8.26788628      20.09625781
Si       2.20183530      -8.44792538      20.09730709
Si       5.90157400      -5.86288108      20.04613649
Si       7.58369442      -4.41375823      20.02051665
Si       8.34131318       0.03837246      19.99989093
Si       8.50663197       2.25254431      19.98280191
Si       5.88982766       5.92436304      20.04294841
Si       4.40669035       7.57652623      20.06729187
Si      -0.06701241       8.19156177      20.10226367
Si      -2.28456329       8.30070008      20.11890894
Si      -5.98354102       5.68333671      20.07618513
Si      -7.70455506       4.28108159      20.03768972
Si      -8.56128298      -0.13520902      20.00025101
Si      -8.70263831      -2.35098865      19.98491438
Si      -3.23834365      -7.64702555      21.89083667
Si      -1.23376752      -8.60157527      21.91304113
Si       3.18278218      -7.60018980      21.89361956
Si       5.30183178      -6.93721896      21.88820716
Si       7.75826310      -3.14849228      21.83109813
Si       8.76572020      -1.16986469      21.80780663
Si       7.76954677       3.23035662      21.82903429
Si       7.04211705       5.32821574      21.83912505
Si       3.15571061       7.62293427      21.89521232
Si       1.13783464       8.54869842      21.92645717
Si      -3.25740135       7.44301058      21.91490660
Si      -5.37302765       6.76896983      21.90788123
Si      -7.90100003       3.02184962      21.84997207
Si      -8.94687771       1.06346395      21.82354084
Si      -7.93789764      -3.31838654      21.82609217
Si      -7.16071546      -5.39821478      21.83783630
Si      -0.03049429      -8.16970157      23.72168725
Si       2.18369687      -8.33537438      23.72880195
Si       5.92452960      -5.79774037      23.68316594
Si       7.64040620      -4.38848414      23.66308856
Si       8.46917959       0.04214952      23.63858340
Si       8.62174381       2.25741000      23.62803989
Si       5.94171014       5.87993759      23.68087871
Si       4.42502794       7.50138987      23.70681502
Si      -0.06032529       8.08442778      23.73099545
Si      -2.27711119       8.21104156      23.74651377
Si      -6.00960054       5.64438561      23.70704712
Si      -7.74376347       4.25783035      23.68194695
Si      -8.63932550      -0.15246512      23.65020216
Si      -8.78455713      -2.36809331      23.63993944
Si      -6.05058890      -5.94522246      23.67553952
Si      -4.51770251      -7.55150759      23.69675798
Si       3.16588848      -7.49404708      25.52697460
Si       5.29321245      -6.85836429      25.52241012
Si       7.82596672      -3.12666795      25.47473035
Si       8.86386156      -1.16388402      25.45476390
Si       7.86146620       3.22174801      25.47200789
Si       7.09555983       5.30573226      25.48294962
Si       3.16755082       7.52591907      25.53025628
Si       1.14437816       8.43996984      25.55531578
Si      -3.25477221       7.36362435      25.54446756
Si      -5.37855392       6.71589396      25.54000592
Si      -7.94198582       3.00187252      25.49615355
Si      -8.99935968       1.04960759      25.47632714
Si      -7.99949505      -3.32816610      25.47614440
Si      -7.20974958      -5.40323474      25.48411341
Si      -3.26351054      -7.59570802      25.52202036
Si      -1.24511905      -8.52058458      25.54029772
Si       5.93281374      -5.73872197      27.32368437
Si       7.67608099      -4.36378444      27.30648794
Si       8.56434933       0.04657069      27.28629591
Si       8.71261213       2.26192705      27.27867708
Si       5.98108415       5.83913176      27.32172618
Si       4.43919603       7.43641405      27.34197553
Si      -0.05272817       7.98659242      27.36303057
Si      -2.26831066       8.12981342      27.37357609
Si      -6.02437433       5.60601571      27.34505371
Si      -7.77235866       4.23709751      27.32752759
Si      -8.68982581      -0.16441625      27.30389945
Si      -8.83805392      -2.37966897      27.29471807
Si      -6.08838464      -5.93808993      27.31858628
Si      -4.53775524      -7.52701105      27.33277442
Si      -0.04531363      -8.08763947      27.35102691
Si       2.16920674      -8.24609624      27.35647819
Si       7.87716747      -3.11032807      29.12219646
Si       8.93839393      -1.15998091      29.10666574
Si       7.93494443       3.21988484      29.11891903
Si       7.14292725       5.29413005      29.12769922
Si       3.18094797       7.45979301      29.16479586
Si       1.15327782       8.36412660      29.18204302
Si      -3.25321538       7.30372770      29.17734860
Si      -5.38365087       6.67813782      29.17440675
Si      -7.97709682       2.98620222      29.14458630
Si      -9.04421773       1.03913453      29.13022698
Si      -8.04581195      -3.33881697      29.12833751
Si      -7.24698562      -5.41044905      29.13183847
Si      -3.28061886      -7.56540402      29.15623755
Si      -1.25287446      -8.46973871      29.16804108
Si       3.15747618      -7.42439319      29.16028343
Si       5.28972552      -6.80520492      29.15548580
Si       8.63103407       0.05078067      30.93669041
Si       8.77830400       2.26621136      30.93242365
Si       6.01525672       5.81706074      30.96145919
Si       4.45521149       7.39673894      30.97561496
Si      -0.04352791       7.92355311      30.99287746
Si      -2.25872625       8.07345275      31.00053612
Si      -6.03487407       5.57852701      30.98369084
Si      -7.79255404       4.22191657      30.97410220
Si      -8.72889961      -0.17504839      30.95665947
Si      -8.87719080      -2.39036824      30.95012807
Si      -6.11454964      -5.93828374      30.96147792
Si      -4.55168561      -7.51525874      30.96971518
Si      -0.05349362      -8.04072881      30.97993864
Si       2.16156499      -8.19252847      30.98335468
Si       5.94109291      -5.70268385      30.96287481
Si       7.70025929      -4.34802894      30.95111410
Si       7.98258491       3.21993858      32.76734478
Si       7.17640563       5.28864590      32.77285407
Si       3.19539574       7.42111646      32.79740752
Si       1.16379295       8.31657484      32.80778400
Si      -3.24628410       7.26190956      32.80941149
Si      -5.38026003       6.64875165      32.80932896
Si      -7.99514878       2.97305686      32.79288998
Si      -9.06892218       1.02967870      32.78500630
Si      -8.07332037      -3.34749460      32.77982821
Si      -7.26779926      -5.41645081      32.77986569
Si      -3.29006822      -7.54915404      32.79029249
Si      -1.25693678      -8.44119831      32.79578258
Si       3.15248738      -7.38457445      32.79195251
Si       5.28691600      -6.77307896      32.78854567
Si       7.90575933      -3.09985022      32.76998628
Si       8.98134442      -1.15744505      32.76079263
Si       6.03951427       5.80884638      34.60179476
Si       4.46986148       7.37913225      34.60870086
Si      -0.03280322       7.88919832      34.62186437
Si      -2.24799454       8.04028261      34.62688225
Si      -6.03389422       5.55789829      34.62301609
Si      -7.79796934       4.20948089      34.62064626
Si      -8.74699118      -0.18495606      34.61004843
Si      -8.89677309      -2.40024729      34.60585694
Si      -6.12734545      -5.94304666      34.60492933
Si      -4.55801643      -7.51367419      34.60632630
Si      -0.05708311      -8.02047171      34.60936570
Si       2.15840069      -8.16718690      34.60988685
Si       5.94438810      -5.68384164      34.60173571
Si       7.71119886      -4.33901443      34.59615598
Si       8.66612070       0.05416066      34.58896507
Si       8.81596138       2.26947066      34.58716528
Si       3.20861948       7.40828432      36.42937517
Si       1.17436253       8.29778089      36.43335723
Si      -3.23578084       7.24046895      36.44068201
Si      -5.37085959       6.63116889      36.44375115
Si      -7.99480896       2.96188365      36.44083357
Si      -9.07311838       1.02098382      36.44003756
Si      -8.08168685      -3.35680711      36.43083336
Si      -7.27488089      -5.42526593      36.42798794
Si      -3.29322781      -7.54952761      36.42460472
Si      -1.25761601      -8.43591922      36.42371191
Si       3.14984082      -7.37057372      36.42312891
Si       5.28453887      -6.75994547      36.42193873
Si       7.91455530      -3.09402159      36.41733558
Si       8.99765431      -1.15578563      36.41534909
Si       8.00613568       3.22196956      36.41653124
Si       7.19626014       5.28923796      36.41846989
Si      -0.02151546       7.88218590      38.25068349
Si      -2.23682389       8.03048797      38.25283266
Si      -6.02161869       5.54668302      38.26228034
Si      -7.78661854       4.19960775      38.26653906
Si      -8.74042972      -0.19338225      38.26339741
Si      -8.89301670      -2.40841485      38.26171698
Si      -6.12796759      -5.95322404      38.24869643
Si      -4.55811305      -7.52320308      38.24300758
Si      -0.05796794      -8.02414091      38.23956646
Si       2.15776421      -8.16602291      38.23668701
Si       5.94083173      -5.67869763      38.24037278
Si       7.70836295      -4.33492608      38.24109404
Si       8.67215710       0.05595272      38.24170222
Si       8.82616995       2.27089591      38.24214349
Si       6.05256391       5.81058520      38.24296562
Si       4.48117934       7.37906163      38.24233933
Si      -3.22451539       7.24329823      40.07214339
Si      -5.35831364       6.62931017      40.07738611
Si      -7.97676207       2.95425594      40.08892272
Si      -9.05559204       1.01356998      40.09461645
Si      -8.07093250      -3.36733242      40.08232793
Si      -7.26938700      -5.43790794      40.07628394
Si      -3.29202652      -7.56960956      40.06016773
Si      -1.25588918      -8.45494240      40.05211844
Si       3.14930420      -7.38104665      40.05493087
Si       5.28228985      -6.76419273      40.05548149
Si       7.90722584      -3.09285485      40.06472565
Si       8.99155631      -1.15523532      40.06938709
Si       8.00813889       3.22542047      40.06681763
Si       7.20297744       5.29461564      40.06470694
Si       3.21893585       7.41950595      40.06213714
Si       1.18410186       8.30788279      40.05929608
Si      -6.00300750       5.54902699      41.90043510
Si      -7.76336850       4.19592482      41.91125337
Si      -8.71086575      -0.20098218      41.91551445
Si      -8.86914383      -2.41562559      41.91714016
Si      -6.11820303      -5.97240468      41.89235144
Si      -4.55427679      -7.54826693      41.88044133
Si      -0.05562735      -8.05375852      41.86989309
Si       2.16042938      -8.19039031      41.86406339
Si       5.93365136      -5.68716566      41.87810493
Si       7.69662483      -4.33745694      41.88535039
Si       8.65513619       0.05660374      41.89360933
Si       8.81426324       2.27118414      41.89687609
Si       6.05454305       5.82227292      41.88438220
Si       4.48881092       7.39639729      41.87702191
Si      -0.01240158       7.90531635      41.87908128
Si      -2.22801798       8.04900131      41.87868947
Si      -7.93909124       2.95099247      43.73537851
Si      -9.01321363       1.00781290      43.74769979
Si      -8.03895454      -3.37659986      43.73306268
Si      -7.24931393      -5.45166884      43.72488712
Si      -3.28635745      -7.60510570      43.69616269
Si      -1.25172273      -8.49363476      43.68163023
Si       3.14895780      -7.41060650      43.68627298
Si       5.27840204      -6.78194615      43.68891292
Si       7.88333071      -3.09631774      43.71095579
Si       8.96284469      -1.15612808      43.72231264
Si       7.98734593       3.22714599      43.71687603
Si       7.19371851       5.30072221      43.71167827
Si       3.22433600       7.44882799      43.69510516
Si       1.19180198       8.34223159      43.68608467
Si      -3.21253925       7.26902333      43.70289056
Si      -5.34257288       6.64240997      43.71023458
Si      -8.65770980      -0.20617431      45.56680628
Si      -8.82304456      -2.42037908      45.57153450
Si      -6.09748914      -5.99744582      45.53720327
Si      -4.54452059      -7.58416551      45.51930278
Si      -0.05034099      -8.10463641      45.50132385
Si       2.16614061      -8.23496715      45.49192818
Si       5.92270911      -5.70828395      45.51598149
Si       7.67609640      -4.34608952      45.52835399
Si       8.61545720       0.05435647      45.54531419
Si       8.77878444       2.26871871      45.55109311
Si       6.04324471       5.83953005      45.52680130
Si       4.49003646       7.42609350      45.51290463
Si      -0.00598527       7.95501912      45.50838406
Si      -2.22205401       8.09261138      45.50470575
Si      -5.97772715       5.56502993      45.53827009
Si      -7.72714916       4.19774294      45.55435664
Si      -7.98729289      -3.38495291      47.38287864
Si      -7.21676810      -5.46716874      47.37418121
Si      -3.27470428      -7.65435935      47.33322121
Si      -1.24399810      -8.55161770      47.31291190
Si       3.15199870      -7.45987022      47.31751773
Si       5.27687315      -6.81619987      47.32208992
Si       7.84740072      -3.10614284      47.35615383
Si       8.91625859      -1.16015000      47.37385784
Si       7.94397407       3.22689155      47.36621375
Si       7.16867811       5.30737785      47.35942649
Si       3.22351696       7.49666000      47.32892554
Si       1.19628574       8.40189159      47.31419379
Si      -3.20266583       7.31906517      47.33366504
Si      -5.32687968       6.67309358      47.34254429
Si      -7.88536407       2.95255181      47.37971819
Si      -8.95160538       1.00511318      47.39854524
Si      -6.06505686      -6.02416416      49.18331062
Si      -4.52758807      -7.62576821      49.16005793
Si      -0.04087668      -8.17363019      49.13395900
Si       2.17581143      -8.29889916      49.12013966
Si       5.91128633      -5.74508007      49.15423197
Si       7.64903021      -4.36315456      49.16963911
Si       8.55228819       0.04674760      49.19605449
Si       8.71726161       2.26092781      49.20425631
Si       6.01700713       5.86004096      49.16976132
Si       4.48446299       7.46642040      49.15003108
Si      -0.00278735       8.03005383      49.13905403
Si      -2.21921101       8.16045504      49.13130659
Si      -5.94686849       5.59459050      49.17518902
Si      -7.67887739       4.20548927      49.19512061
Si      -8.58305298      -0.20722221      49.21616124
Si      -8.75516627      -2.42082835      49.22408353
Si      -3.25755676      -7.71825656      50.97286039
Si      -1.23199224      -8.62744419      50.94558195
Si       3.16484480      -7.53674517      50.94944355
Si       5.28356088      -6.87248901      50.95467356
Si       7.80747906      -3.12775807      51.00156316
Si       8.85405531      -1.16949204      51.02323492
Si       7.87937305       3.22459294      51.01493538
Si       7.12815602       5.31411700      51.00696538
Si       3.21813507       7.56589722      50.96488426
Si       1.19779334       8.48678453      50.94363114
Si      -3.19704673       7.39560797      50.96541519
Si      -5.31242940       6.72059278      50.97424784
Si      -7.82341918       2.96208876      51.02268164
Si      -8.87571827       1.00692073      51.04609192
Si      -7.92238830      -3.39213337      51.03309571
Si      -7.17294354      -5.48224357      51.02380452
Si      -0.02163757      -8.26403427      52.76485078
Si       2.19499997      -8.39088270      52.74838466
Si       5.91199234      -5.80538711      52.79124198
Si       7.62751786      -4.39596968      52.80918101
Si       8.47100989       0.03462105      52.84319491
Si       8.63504842       2.24892789      52.85498839
Si       5.97954422       5.89063110      52.81173883
Si       4.47574278       7.52399957      52.78804381
Si      -0.00491080       8.13348919      52.76982689
Si      -2.22190130       8.25518538      52.75905455
Si      -5.91909100       5.63870445      52.80923239
Si      -7.63077080       4.22460539      52.83283503
Si      -8.49797943      -0.20517834      52.86176928
Si      -8.67825348      -2.41818527      52.87400580
Si      -6.02291188      -6.05534304      52.82894530
Si      -4.50643149      -7.67689969      52.80229952
Si       3.18363561      -7.62461492      54.57648424
Si       5.29744299      -6.94559771      54.58852808
Si       7.75030483      -3.15747411      54.64188936
Si       8.76667304      -1.18359846      54.67022922
Si       7.78342057       3.21605254      54.65746624
Si       7.06889258       5.31828850      54.65408934
Si       3.20573394       7.64382344      54.59941096
Si       1.19541066       8.58600148      54.57604668
Si      -3.18971968       7.47724799      54.59324702
Si      -5.29595205       6.77487391      54.60610320
Si      -7.74894095       2.97662088      54.65923367
Si      -8.78529712       1.01326626      54.68979701
Si      -7.83556560      -3.39006920      54.67819705
Si      -7.11157382      -5.48903191      54.67385892
Si      -3.22834264      -7.77607938      54.60934277
Si      -1.21232048      -8.70585574      54.57999603
Si       5.90258326      -5.87392640      56.43027464
Si       7.58793443      -4.42878428      56.44884764
Si       8.34200052       0.01444694      56.48465697
Si       8.51193517       2.22827690      56.50158164
Si       5.91899370       5.91033623      56.45294576
Si       4.45325890       7.57789998      56.42868413
Si      -0.00634770       8.23075306      56.40255317
Si      -2.22389538       8.34011389      56.39023034
Si      -5.87580596       5.67894906      56.44131423
Si      -7.56861357       4.24252661      56.46802098
Si      -8.38343110      -0.19305600      56.50389764
Si      -8.57012425      -2.40542182      56.52178843
Si      -5.95282155      -6.06084439      56.47369215
Si      -4.46229049      -7.70605253      56.44785743
Si       0.00371507      -8.33913803      56.39473459
Si       2.21933433      -8.47871893      56.37805166
Si       7.65082377      -3.19149427      58.28504749
Si       8.63028300      -1.19948691      58.31514048
Si       7.65209668       3.19593452      58.29941003
Si       6.98143731       5.31213248      58.30224612
Si       3.18565095       7.70977036      58.24075421
Si       1.18631181       8.67395102      58.21589287
Si      -3.17517812       7.54742977      58.22652840
Si      -5.27273460       6.82099145      58.24077300
Si      -7.65801211       2.99732029      58.29749080
Si      -8.67606287       1.02502465      58.33081703
Si      -7.71139611      -3.36354238      58.32539593
Si      -7.01022848      -5.46978750      58.32856433
Si      -3.17809452      -7.80211977      58.25050632
Si      -1.17879512      -8.76529671      58.21839321
Si       3.19609268      -7.70666503      58.20997388
Si       5.30677935      -7.02055535      58.22970196
Si       8.20243403      -0.00722196      60.13269556
Si       8.38506758       2.20574614      60.14029249
Si       5.85744657       5.93329966      60.10808183
Si       4.43034234       7.63390388      60.07185178
Si      -0.01096396       8.33505702      60.04894521
Si      -2.22854063       8.43904476      60.01990536
Si      -5.84571709       5.73662040      60.08537096
Si      -7.51910011       4.27748604      60.09996417
Si      -8.28173493      -0.16402711      60.15805823
Si      -8.45876714      -2.37730007      60.16301558
Si      -5.86361713      -6.05311094      60.13279697
Si      -4.40068771      -7.72291770      60.09607075
Si       0.03663914      -8.44193949      60.04210740
Si       2.25048478      -8.60219034      60.00129499
Si       5.88851641      -5.96998201      60.09164625
Si       7.53319381      -4.47811758      60.08505351
Si       7.59765320       3.21805005      61.94651333
Si       6.94770372       5.34288067      61.94406570
Si       3.18397233       7.85243670      61.89039160
Si       1.18122284       8.81317885      61.85429531
Si      -3.21721383       7.71250168      61.86376360
Si      -5.29747060       6.93288966      61.86747244
Si      -7.67395732       3.06030943      61.94380773
Si      -8.65349855       1.06609799      61.96302423
Si      -7.66098317      -3.36297722      61.97938959
Si      -6.94263591      -5.46547266      61.97670669
Si      -3.14417977      -7.96046592      61.90523299
Si      -1.14874932      -8.93591791      61.84693604
Si       3.27458817      -7.95725600      61.85627610
Si       5.35458905      -7.17523869      61.87339370
Si       7.64628324      -3.25294138      61.92647671
Si       8.56113267      -1.22840331      61.94591236
Si       5.86455004       6.04930165      63.74452116
Si       4.44512634       7.75813429      63.71067575
Si      -0.05846273       8.54500061      63.67160056
Si      -2.27708795       8.64648076      63.64003375
Si      -5.90911067       5.86344962      63.70895999
Si      -7.56743697       4.38591620      63.71684700
Si      -8.32149551      -0.14169597      63.79094917
Si      -8.44892146      -2.36008692      63.79242303
Si      -5.80214721      -6.12327543      63.75985117
Si      -4.40013832      -7.84669366      63.72885784
Si       0.11373348      -8.78320753      63.66270252
Si       2.33033303      -8.94488982      63.60233999
Si       5.96865687      -6.11194301      63.71943789
Si       7.56207832      -4.56422287      63.71141763
Si       8.17091710      -0.01543091      63.75857697
Si       8.35728014       2.19801921      63.76113274
Si       3.09137256       7.89799210      65.45982938
Si       1.14365057       8.96037126      65.48713375
Si      -3.24621308       7.76229868      65.42618016
Si      -5.35605712       7.07576782      65.48071238
Si      -7.61817302       3.08831792      65.51155463
Si      -8.66271473       1.13128736      65.57407429
Si      -7.49160373      -3.34618639      65.53023128
Si      -6.84490814      -5.46766406      65.60282513
Si      -3.00674884      -7.96477022      65.44840424
Si      -1.16493988      -9.20491247      65.42641141
Si       3.37612504      -8.11367442      65.37130727
Si       5.42382985      -7.27129213      65.52963854
Si       7.51474700      -3.22903156      65.47877234
Si       8.53264118      -1.25832346      65.55813455
Si       7.45460942       3.22142104      65.50659399
Si       6.93371726       5.37769105      65.56656083
Si      -0.05464835       8.54567758      67.30268052
Si      -2.27438083       8.48628303      67.27413264
Si      -5.74547965       5.91080914      67.32247482
Si      -7.20797340       4.24083801      67.35051623
Si      -8.07339705      -0.01274795      67.37329768
Si      -7.89269726      -2.22528442      67.39090095
Si      -5.57964188      -5.90964255      67.36549296
Si      -3.99470007      -7.46628296      67.36192739
Si       0.05803857      -8.80938626      67.22583331
Si       2.26223305      -8.57331362      67.21759042
Si       5.67487527      -6.02550416      67.34565316
Si       7.16945603      -4.38212063      67.33140611
Si       7.92445741      -0.11091346      67.35027955
Si       7.87242291       2.10790598      67.36630387
Si       5.72029250       5.87413883      67.34957626
Si       4.12517368       7.41848696      67.35229526
Si      -3.20213195       7.85955478      69.19350275
Si      -5.20060605       6.89981444      69.23480601
Si      -7.65050764       3.30189272      69.31666393
Si      -7.66426846       1.07918496      69.26377290
Si      -7.33686705      -3.17374739      69.31892336
Si      -6.30660076      -5.14065314      69.31745953
Si      -2.74042023      -7.44312428      69.19866167
Si      -0.70920888      -8.35384616      69.26522561
Si       2.76617342      -7.48860889      69.08679265
Si       4.81551807      -6.66205710      69.29592301
Si       7.33572168      -3.24872944      69.23474133
Si       8.12662679      -1.17853341      69.28675997
Si       7.56100566       3.11301613      69.32467175
Si       6.11233597       4.79817217      69.25279453
Si       3.06706465       7.79088403      69.26826106
Si       0.99822920       8.59809111      69.25661288
