608
Properties=species:S:1:pos:R:3 pbc="F F F"
Si      -6.21763543       4.19875543      70.49774957
Si      -7.12215083      -1.95219856      70.90188619
Si       0.06010589      -9.28177109      70.91087551
Si      -0.17182786       8.11326719      70.82301149
Si       8.46856231      -0.14558941      70.97121774
Si       5.87158883       6.36863347      70.54241716
Si       7.05849057       1.49611146      70.50214909
Si       7.22614219      -4.68987045      70.66197800
Si      -2.16249492       9.03514257      70.50528767
Si      -8.49937755      -0.24629169      70.57583413
Si      -6.19995322       6.37685974      70.89654622
Si       0.98118172      -7.41053410      70.15246190
Si      -4.26769708      -7.50409309      70.54667443
Si       5.08849926      -5.27243480      70.74914960
Si       3.71717367       6.77212351      70.87230466
Si      -5.11042180      -5.48420462      70.89824214
Si       7.74604930       3.54406403       3.85520020
Si       5.86491772       4.66943881       3.52700561
Si       2.70867406       7.20176424       3.54495514
Si       1.14560931       8.73036246       3.91147487
Si      -3.55247973       8.57633747       3.53025327
Si      -3.59335890       6.48450901       4.27160250
Si      -6.34249790       2.87499952       3.60396689
Si      -7.99082022       1.40475919       3.79663177
Si      -6.56622492      -3.00763044       3.61144607
Si      -6.70049662      -5.20794739       3.83681184
Si      -3.42803698      -8.56881520       3.50599414
Si      -1.85017678      -7.19741111       4.25192854
Si       2.75843514      -6.89824020       3.65715226
Si       4.95315091      -7.19699901       3.75947101
Si       7.82221935      -3.47401510       3.43475083
Si       7.12447789      -1.42799132       3.91383009
Si       5.62138964       5.86568106       5.38736846
Si       3.93552737       7.31113996       5.39871936
Si      -0.23971498       8.04785916       5.50871772
Si      -2.46544764       8.04734733       5.43764575
Si      -5.25870685       5.81510920       5.59046285
Si      -6.72866030       4.16638901       5.37577437
Si      -7.49398648       0.01609842       5.45938852
Si      -7.68473292      -2.19581813       5.35767613
Si      -5.28362654      -5.75457402       5.45987725
Si      -3.77742994      -7.39347017       5.40251068
Si      -0.25405668      -7.99992026       5.58255745
Si       1.95557392      -8.05866422       5.37901752
Si       5.60591821      -5.90215933       5.44701535
Si       7.12424773      -4.28760373       5.39310387
Si       8.17339712      -0.09276055       5.35021945
Si       7.41642205       1.99684702       5.41631126
Si       2.95775811       7.71747698       7.35036520
Si       0.89440831       8.54095455       7.35737844
Si      -3.36071792       8.12677400       7.47426479
Si      -5.26497386       6.99168409       7.47154008
Si      -7.29369702       3.23165823       7.31324027
Si      -8.01400943       1.12998605       7.31077757
Si      -7.20399907      -3.15784931       7.30354463
Si      -6.40680501      -5.23125666       7.30653819
Si      -3.26265951      -8.12047387       7.44261864
Si      -1.15045356      -8.79306085       7.45144530
Si       2.99208518      -7.81059397       7.33128760
Si       5.01065135      -6.88311107       7.34930465
Si       7.32552215      -3.21751899       7.32839277
Si       8.09240491      -1.13485201       7.31223911
Si       7.42392459       3.14890386       7.31526912
Si       6.46478085       5.15101317       7.31192746
Si      -0.23100650       8.55294710       9.26011621
Si      -2.41577567       8.95114453       9.29500404
Si      -6.16469334       6.10185096       9.27616536
Si      -7.69217736       4.50210825       9.08401156
Si      -8.04085975      -0.09009164       9.15148646
Si      -8.28223978      -2.29400604       9.03334049
Si      -5.74744463      -6.14630020       9.20589651
Si      -4.57883635      -8.03503552       9.21720281
Si       0.05524625      -8.83285368       9.29580785
Si       2.26936279      -8.87352617       9.13701891
Si       5.77648666      -5.94603803       9.19698065
Si       7.47156181      -4.51508537       9.11500673
Si       8.10825905       0.07827933       9.15538726
Si       8.42095408       2.27456900       9.08618547
Si       5.68253398       6.03455688       9.17823776
Si       4.29197241       7.76314663       9.11724915
Si      -3.44309210       7.98448440      11.00846512
Si      -5.54627239       7.26294958      11.05944492
Si      -7.80846222       3.19661191      10.87301162
Si      -8.70063245       1.16110864      10.85674961
Si      -7.61602420      -3.33652099      10.87209698
Si      -7.01997768      -5.47725752      10.89210539
Si      -3.22966334      -8.14732526      10.97529079
Si      -1.25857720      -9.17448136      11.04830024
Si       3.22283582      -8.00671875      10.94162529
Si       5.29380016      -7.20235136      10.95674018
Si       7.57600384      -3.19921205      10.89587818
Si       8.56860304      -1.21151709      10.89641761
Si       7.62409325       3.31441131      10.87459019
Si       6.93997088       5.42876127      10.89909492
Si       3.05637934       7.91996989      10.95080799
Si       1.08848550       8.95114963      10.99569040
Si      -6.05209414       5.92653057      12.75507145
Si      -7.69006261       4.42461667      12.71459816
Si      -8.37555359      -0.09037637      12.65712095
Si      -8.48565983      -2.30977072      12.63347737
Si      -5.91882993      -6.08969698      12.71587764
Si      -4.46498777      -7.76909871      12.77658914
Si       0.00031223      -8.61927549      12.78667883
Si       2.21996733      -8.73007702      12.78175777
Si       5.85645183      -5.99762661      12.72980644
Si       7.46439909      -4.46445069      12.71092378
Si       8.18535488       0.04422358      12.68131018
Si       8.36558746       2.25897175      12.67647916
Si       5.81109596       6.02295743      12.71126408
Si       4.35375378       7.69999504      12.73445934
Si      -0.12957582       8.48060873      12.78749445
Si      -2.34876465       8.57367245      12.84324324
Si      -7.78412785       3.09504544      14.48522434
Si      -8.78268892       1.11140462      14.47234858
Si      -7.73368411      -3.28365328      14.47549540
Si      -7.01721672      -5.38518470      14.50553338
Si      -3.17556871      -7.75565231      14.57683085
Si      -1.21186360      -8.78972307      14.63209558
Si       3.17464499      -7.80957311      14.55723564
Si       5.27084809      -7.07714292      14.57236027
Si       7.54946401      -3.16802940      14.50478559
Si       8.53668564      -1.17938199      14.49307832
Si       7.55588839       3.23444703      14.49262834
Si       6.91600343       5.36048552      14.51314394
Si       3.10757304       7.75966228      14.56503834
Si       1.10475673       8.71644502      14.61144900
Si      -3.25483700       7.58130390      14.60380362
Si      -5.36349746       6.88826413      14.62646491
Si      -8.47291526      -0.11283826      16.29263612
Si      -8.61726088      -2.32797249      16.26832494
Si      -5.92028948      -5.92767312      16.35111667
Si      -4.44727014      -7.58737133      16.38240693
Si       0.00490072      -8.32032565      16.42140985
Si       2.21377863      -8.53766698      16.41582128
Si       5.85191863      -5.90358320      16.35920091
Si       7.50794207      -4.42559378      16.32736822
Si       8.20363481       0.03778181      16.31269346
Si       8.39925134       2.24874419      16.28822281
Si       5.83198621       5.94617720      16.35338932
Si       4.38206062       7.62703227      16.37248528
Si      -0.07040735       8.23558958      16.42605551
Si      -2.28708170       8.33810858      16.44621334
Si      -5.94083625       5.68390541      16.39243976
Si      -7.67576652       4.30071134      16.34043938
Si      -7.88576099      -3.30127615      18.11890257
Si      -7.11951101      -5.38494299      18.13245548
Si      -3.20203189      -7.65429417      18.21197610
Si      -1.21884934      -8.65191236      18.23726121
Si       3.19846394      -7.68689073      18.20825620
Si       5.31303349      -7.00994131      18.20040787
Si       7.68034561      -3.15979364      18.13667231
Si       8.67455824      -1.17474640      18.10499773
Si       7.67878239       3.23907447      18.13305401
Si       7.00366878       5.35432700      18.13780884
Si       3.14718178       7.69205318      18.21001543
Si       1.13245418       8.62408023      18.24458081
Si      -3.24673947       7.45953314      18.23804079
Si      -5.36137645       6.78390380      18.22476402
Si      -7.87722963       3.02957472      18.14312274
Si      -8.93007896       1.07523186      18.10562103
Si      -6.02134553      -5.93845801      19.97447349
Si      -4.50515227      -7.56042417      20.00032740
Si      -0.00824098      -8.22425315      20.04114396
Si       2.20332165      -8.42223673      20.04520908
Si       5.93210100      -5.85382450      19.98560155
Si       7.62840461      -4.42121512      19.95625264
Si       8.39289538       0.04505982      19.93192776
Si       8.56637023       2.25865381      19.91015477
Si       5.92101185       5.92760736      19.98275054
Si       4.43106492       7.57372483      20.01125749
Si      -0.06431610       8.14889807      20.04680016
Si      -2.28189868       8.25979276      20.06337902
Si      -6.00606444       5.64949339      20.01380327
Si      -7.74895167       4.27452652      19.97068064
Si      -8.63883839      -0.14696044      19.93010878
Si      -8.78434546      -2.36253031      19.91299229
Si      -3.24901124      -7.60776823      21.82378706
Si      -1.24202769      -8.55744423      21.85005329
Si       3.19298525      -7.55942459      21.82911458
Si       5.32061133      -6.92405764      21.82566599
Si       7.81457806      -3.14306146      21.75624661
Si       8.83813921      -1.17264419      21.72799720
Si       7.82846036       3.23863100      21.75439274
Si       7.09396049       5.33413003      21.76603779
Si       3.16753255       7.59181397      21.83058714
Si       1.14553402       8.50867265      21.86671704
Si      -3.26482430       7.39043504      21.84787835
Si      -5.38793031       6.73984170      21.83963978
Si      -7.96270905       3.00690087      21.77469272
Si      -9.03193959       1.06111390      21.74512891
Si      -8.00744567      -3.32898315      21.74915838
Si      -7.21561069      -5.40337135      21.76184704
Si      -0.03381011      -8.10296552      23.64935239
Si       2.17945495      -8.28131694      23.66112649
Si       5.95556097      -5.76947286      23.60624758
Si       7.69421475      -4.38828423      23.58401162
Si       8.54971204       0.04879231      23.55339653
Si       8.70601466       2.26386573      23.53982087
Si       5.97895296       5.86699844      23.60401322
Si       4.44753307       7.47454268      23.63452795
Si      -0.06002520       8.01604034      23.65834266
Si      -2.27624732       8.15375890      23.67649467
Si      -6.04163627       5.60865841      23.62812381
Si      -7.79770157       4.24983393      23.60077640
Si      -8.72614913      -0.16478051      23.56499362
Si      -8.87595189      -2.38015550      23.55302942
Si      -6.09171515      -5.93376921      23.59557328
Si      -4.54319330      -7.52507414      23.61937917
Si       3.16909868      -7.42190890      25.44611850
Si       5.30668867      -6.82146884      25.44374323
Si       7.89580551      -3.11462464      25.38525468
Si       8.95843585      -1.16507790      25.36083214
Si       7.93960825       3.22602816      25.38190661
Si       7.15565309       5.30332226      25.39420848
Si       3.17815847       7.46464435      25.44927071
Si       1.15089264       8.36953053      25.47843469
Si      -3.26404620       7.29225590      25.46175170
Si      -5.39757100       6.67707587      25.45781247
Si      -8.01235445       2.98474808      25.40635458
Si      -9.09365383       1.04560219      25.38368653
Si      -8.07988074      -3.33828575      25.38505227
Si      -7.27430083      -5.40730690      25.39317469
Si      -3.28104173      -7.54181455      25.43907341
Si      -1.25712078      -8.45452168      25.46151029
Si       5.96354983      -5.69227820      27.23233313
Si       7.73641038      -4.35564102      27.21307854
Si       8.66727866       0.05436345      27.18737945
Si       8.81747942       2.26963947      27.17723365
Si       6.02519140       5.81311316      27.22934907
Si       4.46231185       7.38982115      27.25234718
Si      -0.05229115       7.88989834      27.27473407
Si      -2.26669457       8.05060369      27.28765696
Si      -6.06163003       5.56101675      27.25199981
Si      -7.83519517       4.22532311      27.23289586
Si      -8.78914368      -0.17780748      27.20543436
Si      -8.94175238      -2.39279971      27.19391256
Si      -6.13915903      -5.92258745      27.22426318
Si      -4.56875746      -7.49198203      27.24046849
Si      -0.05359239      -7.99522737      27.26268592
Si       2.16003573      -8.16562552      27.27163544
Si       7.95827786      -3.09322834      29.01975349
Si       9.04973256      -1.15957389      29.00073304
Si       8.02983982       3.22390529      29.01474181
Si       7.21285189       5.28847454      29.02412502
Si       3.19405471       7.37982986      29.06771112
Si       1.16110380       8.27218589      29.08728312
Si      -3.26289373       7.21416371      29.07990180
Si      -5.40472263       6.62855761      29.07774061
Si      -8.05865633       2.96599673      29.04154615
Si      -9.15179260       1.03335402      29.02470459
Si      -8.13984042      -3.34994987      29.02394540
Si      -7.32168738      -5.41407383      29.02714100
Si      -3.30311733      -7.49941176      29.05787021
Si      -1.26793715      -8.38684900      29.07259167
Si       3.15762281      -7.33122432      29.06388204
Si       5.30127749      -6.75261433      29.06027553
Si       8.74873812       0.06050274      30.82530383
Si       8.89768111       2.27588886      30.81931703
Si       6.06756913       5.78655785      30.85336715
Si       4.48235776       7.34098337      30.86875860
Si      -0.04105134       7.80916415      30.88831885
Si      -2.25493447       7.97767047      30.89772033
Si      -6.07568407       5.52448541      30.87663008
Si      -7.86222873       4.20599854      30.86645830
Si      -8.84210710      -0.19027927      30.84544989
Si      -8.99370153      -2.40544053      30.83703364
Si      -6.17343979      -5.92027092      30.85255721
Si      -4.58721952      -7.47377435      30.86218648
Si      -0.06455902      -7.93301790      30.87518204
Si       2.14966044      -8.09677688      30.88079315
Si       5.97351184      -5.64614208      30.85707086
Si       7.76521394      -4.33471087      30.84402167
Si       8.08767255       3.22558914      32.64972388
Si       7.25410859       5.28345781      32.65507879
Si       3.21288045       7.33339092      32.68337407
Si       1.17447360       8.21325941      32.69473398
Si      -3.25383863       7.15840875      32.69627897
Si      -5.39993253       6.58891419      32.69740970
Si      -8.08351857       2.94895724      32.67706229
Si      -9.18604955       1.02165871      32.66794037
Si      -8.17782665      -3.36005499      32.66236621
Si      -7.34960334      -5.42007917      32.66194329
Si      -3.31575484      -7.47539520      32.67567426
Si      -1.27436903      -8.34838870      32.68285547
Si       3.15105226      -7.28067838      32.67935315
Si       5.29732246      -6.71194617      32.67683977
Si       7.99176133      -3.07907399      32.65484564
Si       9.10023232      -1.15515908      32.64391006
Si       6.09785739       5.77931818      34.47817639
Si       4.50114336       7.32209589      34.48482123
Si      -0.02674168       7.76594636      34.50029059
Si      -2.24074668       7.93370708      34.50627183
Si      -6.07311366       5.49531872      34.50177741
Si      -7.86858727       4.18888537      34.50000947
Si      -8.86769948      -0.20249055      34.48694575
Si      -9.02075439      -2.41762938      34.48166811
Si      -6.19065068      -5.92399498      34.48130890
Si      -4.59586615      -7.46878310      34.48298187
Si      -0.07017641      -7.90569378      34.48771857
Si       2.14448639      -8.06455611      34.48925565
Si       5.97578791      -5.62199881      34.48131096
Si       7.77588175      -4.32193721      34.47568082
Si       8.78818432       0.06614631      34.46585745
Si       8.94121919       2.28130559      34.46307935
Si       3.23031652       7.32171895      36.29847970
Si       1.18800579       8.19256870      36.30195167
Si      -3.23912713       7.12933162      36.31160088
Si      -5.38635922       6.56421357      36.31575194
Si      -8.08287443       2.93382943      36.31269884
Si      -9.19243023       1.01053009      36.31217033
Si      -8.19026781      -3.37146992      36.30079886
Si      -7.35946823      -5.43045101      36.29713492
Si      -3.32064524      -7.47437944      36.29377389
Si      -1.27661103      -8.34116487      36.29284252
Si       3.14631426      -7.26402102      36.29442808
Si       5.29272524      -6.69575059      36.29379558
Si       7.99815389      -3.07027298      36.28963729
Si       9.11529247      -1.15136435      36.28768492
Si       8.11416121       3.23051978      36.28611758
Si       7.27802194       5.28734856      36.28703954
Si      -0.01194181       7.76082837      38.11217729
Si      -2.22631324       7.92269184      38.11399258
Si      -6.05603695       5.47979306      38.12687590
Si      -7.85309365       4.17569043      38.13258807
Si      -8.86010834      -0.21339037      38.12889942
Si      -9.01713857      -2.42818376      38.12701988
Si      -6.19228725      -5.93710691      38.11060171
Si      -4.59716482      -7.48141481      38.10366845
Si      -0.07262798      -7.91277968      38.10137196
Si       2.14236990      -8.06597555      38.09798860
Si       5.96849496      -5.61601131      38.10540767
Si       7.76824996      -4.31559541      38.10713026
Si       8.78997438       0.07046995      38.10701014
Si       8.94987534       2.28506318      38.10718475
Si       6.11392443       5.78669645      38.10436019
Si       4.51586334       7.32800447      38.10195596
Si      -3.22406499       7.13513555      39.92698749
Si      -5.36931385       6.56228712      39.93282532
Si      -8.05847037       2.92383583      39.94841501
Si      -9.16911154       1.00109441      39.95585647
Si      -8.17649773      -3.38514587      39.93987752
Si      -7.35293287      -5.44710852      39.93258440
Si      -3.32040809      -7.50285028      39.91331611
Si      -1.27608368      -8.36912255      39.90340901
Si       3.14375572      -7.28115126      39.91026290
Si       5.28754621      -6.70275686      39.91098381
Si       7.98292807      -3.06718467      39.92416432
Si       9.10103396      -1.14877248      39.93043131
Si       8.11282223       3.23790571      39.92379132
Si       7.28508596       5.29822349      39.92001009
Si       3.24361889       7.34294901      39.91464243
Si       1.20019813       8.21141224      39.90979818
Si      -6.03128467       5.48425790      41.75040702
Si      -7.82188593       4.17134172      41.76348813
Si      -8.82081806      -0.22321379      41.76920036
Si      -8.98573240      -2.43744536      41.77156131
Si      -6.18046123      -5.96380810      41.73980389
Si      -4.59380548      -7.51680552      41.72534764
Si      -0.07138767      -7.95684903      41.71518691
Si       2.14416119      -8.10202430      41.70774662
Si       5.95562170      -5.62786847      41.72821702
Si       7.74819337      -4.31761314      41.73742064
Si       8.76195487       0.07360668      41.74676244
Si       8.93010664       2.28759024      41.75056526
Si       6.11541388       5.80730608      41.73105930
Si       4.52536128       7.35688977      41.72073495
Si      -0.00051125       7.79710878      41.72356630
Si      -2.21547883       7.95086235      41.72173820
Si      -8.00869256       2.92000751      43.58163250
Si      -9.11331981       0.99394215      43.59709190
Si      -8.13459725      -3.39787003      43.57775466
Si      -7.32805236      -5.46648169      43.56812121
Si      -3.31483016      -7.55408828      43.53335952
Si      -1.27262383      -8.42510522      43.51584854
Si       3.14100510      -7.32352262      43.52535539
Si       5.27978692      -6.72719145      43.52820536
Si       7.94662362      -3.06973056      43.55667791
Si       9.05873977      -1.14797861      43.57099712
Si       8.08285787       3.24347480      43.56091998
Si       7.27202974       5.31044041      43.55382016
Si       3.24995921       7.38806618      43.53119254
Si       1.20926684       8.26270326      43.51909987
Si      -3.20908968       7.17311133      43.54131312
Si      -5.34929291       6.58198223      43.54907502
Si      -8.75017383      -0.22997871      45.40762955
Si      -8.92536176      -2.44348525      45.41390841
Si      -6.15448335      -5.99836622      45.37025393
Si      -4.58301683      -7.56678458      45.34910002
Si      -0.06683806      -8.02766321      45.33027059
Si       2.14938110      -8.16279523      45.31879025
Si       5.93673517      -5.65451455      45.35073566
Si       7.71655986      -4.32698154      45.36571976
Si       8.70574915       0.07313740      45.38541435
Si       8.88122216       2.28662994      45.39255684
Si       6.09947584       5.83402854      45.35889236
Si       4.52604181       7.40054799      45.34129817
Si       0.00692765       7.86707090      45.33603226
Si      -2.20871804       8.01169070      45.33018895
Si      -5.99805307       5.50694705      45.37308782
Si      -7.77414432       4.17442330      45.39214718
Si      -8.06765430      -3.40898554      47.21412622
Si      -7.28709279      -5.48750372      47.20407272
Si      -3.30190473      -7.62150215      47.15519064
Si      -1.26449370      -8.50342249      47.13135726
Si       3.14145370      -7.38853722      47.14077758
Si       5.27393027      -6.77038969      47.14528686
Si       7.89528386      -3.08001190      47.18747185
Si       8.99482747      -1.15116737      47.20888989
Si       8.02489388       3.24565286      47.19683159
Si       7.23861547       5.32205817      47.18832176
Si       3.24786367       7.45433500      47.14928397
Si       1.21371216       8.34389531      47.13060914
Si      -3.19673130       7.24154141      47.15598205
Si      -5.32930094       6.62354746      47.16505490
Si      -7.93805029       2.92237269      47.21176458
Si      -9.03241104       0.99057457      47.23464419
Si      -6.11467949      -6.03463127      49.00254850
Si      -4.56374228      -7.62320990      48.97557511
Si      -0.05695178      -8.11937841      48.94773338
Si       2.15967939      -8.24613071      48.93111263
Si       5.91835566      -5.70027698      48.97390367
Si       7.67856865      -4.34703110      48.99140669
Si       8.62308542       0.06571671      49.02239749
Si       8.80207672       2.27885960      49.03234875
Si       6.06516957       5.86343631      48.98770200
Si       4.51808268       7.45581959      48.96366866
Si       0.00977330       7.96791856      48.95091144
Si      -2.20643709       8.10252477      48.94006396
Si      -5.95893926       5.54684432      48.99484515
Si      -7.71248365       4.18496934      49.01775265
Si      -8.65400817      -0.23167719      49.04311882
Si      -8.83947026      -2.44424925      49.05289718
Si      -3.28253359      -7.70516595      50.78063883
Si      -1.25127997      -8.60166766      50.74940761
Si       3.15528778      -7.48664788      50.75741904
Si       5.27972715      -6.84065961      50.76183930
Si       7.84342913      -3.10566702      50.81813735
Si       8.91605814      -1.16150311      50.84321419
Si       7.94335553       3.24485434      50.83160026
Si       7.18759676       5.33281235      50.82205147
Si       3.23996668       7.54534977      50.77037046
Si       1.21451380       8.45500400      50.74427935
Si      -3.19104709       7.34268059      50.77206262
Si      -5.31232131       6.68609109      50.78075971
Si      -7.85979801       2.93456457      50.83972763
Si      -8.93668845       0.99280409      50.86727112
Si      -7.98720518      -3.41896416      50.85057234
Si      -7.23450672      -5.50797224      50.83976374
Si      -0.03488585      -8.23407940      52.56340847
Si       2.18186715      -8.36072528      52.54440182
Si       5.91859280      -5.77491756      52.59502348
Si       7.65178999      -4.38715121      52.61472072
Si       8.52447614       0.05234101      52.65437327
Si       8.70185983       2.26570031      52.66818036
Si       6.01879369       5.90375239      52.61524356
Si       4.50682418       7.52963089      52.58707676
Si       0.00576815       8.10135688      52.56598431
Si      -2.21127120       8.22411749      52.55213140
Si      -5.92581440       5.60389490      52.61270984
Si      -7.65319827       4.20891566      52.63958529
Si      -8.55029443      -0.22991533      52.67348571
Si      -8.74674553      -2.44161632      52.68770101
Si      -6.06607859      -6.07610549      52.63428542
Si      -4.54047096      -7.68916674      52.60383093
Si       3.17706815      -7.59266739      54.36773575
Si       5.29576901      -6.92877633      54.38027889
Si       7.77701180      -3.14112547      54.44158127
Si       8.81358912      -1.17775817      54.47404016
Si       7.82863891       3.23621136      54.45802816
Si       7.11661935       5.33938736      54.45456897
Si       3.22409176       7.64272906      54.38953218
Si       1.21079221       8.57869414      54.36227855
Si      -3.18377113       7.44531142      54.38299140
Si      -5.29366233       6.75372024      54.39729586
Si      -7.76966740       2.95136943      54.45895158
Si      -8.82858459       1.00010307      54.49467587
Si      -7.88611046      -3.41864981      54.48016739
Si      -7.16521819      -5.51877334      54.47530150
Si      -3.24971153      -7.77766782      54.40206486
Si      -1.22913364      -8.69769655      54.37036977
Si       5.90556772      -5.85259855      56.21732399
Si       7.60562992      -4.42481071      56.23844018
Si       8.37246336       0.02911465      56.27811655
Si       8.55662863       2.24177889      56.29825036
Si       5.94548376       5.92568308      56.24117401
Si       4.47896174       7.59256654      56.21384035
Si       0.00323801       8.21604709      56.18310994
Si      -2.21437940       8.32455996      56.16965462
Si      -5.87205952       5.64943737      56.22739932
Si      -7.57754440       4.22820244      56.25828520
Si      -8.41367931      -0.21636279      56.29849713
Si      -8.62090966      -2.42688033      56.31935001
Si      -5.98628038      -6.08325011      56.26390924
Si      -4.49055595      -7.72374183      56.23604509
Si      -0.00692278      -8.31777178      56.17786874
Si       2.20860549      -8.45894208      56.16077003
Si       7.66038803      -3.17891307      58.06848265
Si       8.65573583      -1.19495065      58.10205598
Si       7.67322082       3.20952252      58.08403493
Si       7.01246585       5.32877388      58.08777319
Si       3.19866022       7.71351351      58.01732660
Si       1.19851121       8.67588405      57.99012616
Si      -3.16471804       7.52195058      58.00166006
Si      -5.26470389       6.80287702      58.01755966
Si      -7.65875309       2.97345227      58.08099531
Si      -8.69869276       1.01281195      58.11860638
Si      -7.74149829      -3.38584868      58.11198332
Si      -7.04937266      -5.49501937      58.11594026
Si      -3.19301832      -7.80169929      58.02959348
Si      -1.19090280      -8.75875519      57.99653262
Si       3.18722466      -7.67785670      57.98742762
Si       5.30352382      -7.00952368      58.00752458
Si       8.21619031       0.00309037      59.91239512
Si       8.41354310       2.21478495      59.91894132
Si       5.87304508       5.94634966      59.88467491
Si       4.45070216       7.65083375      59.84342868
Si      -0.00318410       8.32874782      59.81834598
Si      -2.22070647       8.43274926      59.78622437
Si      -5.83836045       5.71443042      59.85899779
Si      -7.52254828       4.26786185      59.87285761
Si      -8.29696446      -0.18183012      59.93997201
Si      -8.49417281      -2.39337954      59.94353379
Si      -5.88613365      -6.07095250      59.91141055
Si      -4.42217268      -7.73974982      59.87092139
Si       0.02881302      -8.42589103      59.81528153
Si       2.24222096      -8.59013506      59.77004541
Si       5.88966607      -5.95812590      59.86708424
Si       7.54569543      -4.47891149      59.85849170
Si       7.62256818       3.23561413      61.71817473
Si       6.97649124       5.36181842      61.71421266
Si       3.19562638       7.87089689      61.65530913
Si       1.19130954       8.82865728      61.61583507
Si      -3.21756817       7.70870886      61.62621184
Si      -5.29916375       6.93222207      61.62874271
Si      -7.69027654       3.04989836      61.71442258
Si      -8.68060865       1.06081950      61.73339608
Si      -7.69250414      -3.38605852      61.75374549
Si      -6.97788394      -5.49007454      61.74951308
Si      -3.15678662      -7.98001784      61.67307562
Si      -1.15757144      -8.94795422      61.61107624
Si       3.27768439      -7.95643668      61.62211750
Si       5.36111017      -7.18293068      61.63664790
Si       7.66705214      -3.25011760      61.69636238
Si       8.58870849      -1.22844250      61.71532808
Si       5.88662176       6.07685811      63.50689862
Si       4.46783652       7.78658542      63.46817319
Si      -0.05946144       8.56290088      63.42566196
Si      -2.27835777       8.66383547      63.39143080
Si      -5.92631436       5.86498408      63.46597710
Si      -7.59211355       4.39530715      63.47278380
Si      -8.35645107      -0.15503546      63.55696943
Si      -8.49217893      -2.37338427      63.55604547
Si      -5.82670087      -6.15618347      63.52239063
Si      -4.42502564      -7.88033470      63.48882781
Si       0.11598609      -8.80472251      63.41975228
Si       2.33288988      -8.96669013      63.35476572
Si       5.99002161      -6.12095037      63.47812470
Si       7.58914181      -4.57857422      63.46866632
Si       8.20211532      -0.00462171      63.52104853
Si       8.39551607       2.20859911      63.52298141
Si       3.09251547       7.91809413      65.20082728
Si       1.14962921       8.98945549      65.23376789
Si      -3.25587544       7.76613842      65.16602535
Si      -5.37042691       7.09395208      65.22518661
Si      -7.64100645       3.08291615      65.25645110
Si      -8.70353529       1.13541959      65.32650150
Si      -7.51071828      -3.36727010      65.27550559
Si      -6.87869374      -5.49303473      65.35727259
Si      -3.00955696      -7.99164056      65.19056448
Si      -1.17154133      -9.23805376      65.17426190
Si       3.39351195      -8.13276858      65.11356037
Si       5.44239389      -7.29385380      65.27859283
Si       7.53489161      -3.22508166      65.22151158
Si       8.56806594      -1.26246382      65.30918593
Si       7.47015635       3.24056190      65.25114850
Si       6.96855096       5.40146060      65.32003412
Si      -0.05464835       8.54567758      67.03809192
Si      -2.27438083       8.48628303      67.00954404
Si      -5.74547965       5.91080914      67.05788622
Si      -7.20797340       4.24083801      67.08592763
Si      -8.07339705      -0.01274795      67.10870908
Si      -7.89269726      -2.22528442      67.12631235
Si      -5.57964188      -5.90964255      67.10090436
Si      -3.99470007      -7.46628296      67.09733879
Si       0.05803857      -8.80938626      66.96124471
Si       2.26223305      -8.57331362      66.95300182
Si       5.67487527      -6.02550416      67.08106456
Si       7.16945603      -4.38212063      67.06681751
Si       7.92445741      -0.11091346      67.08569095
Si       7.87242291       2.10790598      67.10171527
Si       5.72029250       5.87413883      67.08498766
Si       4.12517368       7.41848696      67.08770666
Si      -3.20213195       7.85955478      68.92891415
Si      -5.20060605       6.89981444      68.97021741
Si      -7.65050764       3.30189272      69.05207533
Si      -7.66426846       1.07918496      68.99918430
Si      -7.33686705      -3.17374739      69.05433476
Si      -6.30660076      -5.14065314      69.05287093
Si      -2.74042023      -7.44312428      68.93407307
Si      -0.70920888      -8.35384616      69.00063701
Si       2.76617342      -7.48860889      68.82220405
Si       4.81551807      -6.66205710      69.03133441
Si       7.33572168      -3.24872944      68.97015273
Si       8.12662679      -1.17853341      69.02217137
Si       7.56100566       3.11301613      69.06008315
Si       6.11233597       4.79817217      68.98820593
Si       3.06706465       7.79088403      69.00367246
Si       0.99822920       8.59809111      68.99202428
