700
Properties=species:S:1:pos:R:3 pbc="F F F"
C       26.78659678       0.09345853       0.06091396
C       26.77564528       1.33375479      -0.13682396
C       25.98399706       6.65398401       0.06998133
C       25.67429006       7.85502747      -0.12801721
C       23.57263097      12.80920125       0.07670057
C       22.96284153      13.88912973      -0.12226893
C       19.60166300      18.09431079       0.07761962
C       18.71510733      18.96130797      -0.12244422
C       14.30543314      22.05297049       0.07480111
C       13.21113158      22.63586930      -0.12606385
C        8.11389559      24.34418268       0.06517440
C        6.89841513      24.58776981      -0.13629157
C        1.54951714      25.10490560       0.06076425
C        0.31099778      25.16711947      -0.13874330
C       -5.05191159      24.88166223       0.06003724
C       -6.28250980      24.72932789      -0.14020175
C      -11.47844205      23.32752721       0.05238688
C      -12.63257962      22.87459462      -0.14911623
C      -17.26106476      20.11992717       0.04388188
C      -18.24268053      19.36224151      -0.15650761
C      -21.90885557      15.42116306       0.04203335
C      -22.63258512      14.41423281      -0.15757657
C      -25.08171532       9.62248197       0.04525384
C      -25.52089355       8.46242221      -0.15245044
C      -26.67880263       3.21081233       0.05537492
C      -26.81398055       1.97779988      -0.14200186
C      -26.67225566      -3.39869013       0.06747514
C      -26.51437893      -4.62908303      -0.12975322
C      -25.05956401      -9.80865672       0.07820497
C      -24.59399311     -10.95828772      -0.12006524
C      -21.82344849     -15.57332087       0.08201272
C      -21.06411289     -16.55379017      -0.11753239
C      -17.11845458     -20.21962782       0.08046744
C      -16.11501557     -20.94792554      -0.12056316
C      -11.28250888     -23.30862598       0.06838548
C      -10.10706827     -23.70205534      -0.13380680
C       -4.84184353     -24.76743521       0.05699977
C       -3.61301335     -24.93493204      -0.14102656
C        1.75023332     -25.18088188       0.05911392
C        2.98984150     -25.15315412      -0.14071769
C        8.31366921     -24.38294986       0.05464953
C        9.51822276     -24.08858779      -0.14606462
C       14.48063529     -21.99876095       0.04996645
C       15.55514866     -21.38005067      -0.15070906
C       19.71807819     -17.96580651       0.04633406
C       20.57118988     -17.06588650      -0.15354311
C       23.62429654     -12.63344306       0.04683222
C       24.20622629     -11.53821136      -0.15176748
C       26.00247322      -6.46827599       0.05267612
C       26.28603599      -5.26085483      -0.14541053
C       26.63361581       2.41572791       0.77545116
C       26.53530553       3.78114536       0.52730954
C       25.26787041       8.86842799       0.78371132
C       24.83908796      10.16869414       0.53561731
C       22.30057392      14.75861437       0.78839945
C       21.54462811      15.90024108       0.53958522
C       17.83583739      19.61206934       0.78727605
C       16.78848062      20.49382845       0.53754539
C       12.18197927      23.00719267       0.78328945
C       10.93114218      23.56411588       0.53373732
C        5.80968088      24.69111191       0.77268899
C        4.45483285      24.87598627       0.51882164
C       -0.77774329      25.09621051       0.77222178
C       -2.14536525      25.10483477       0.52100198
C       -7.34198265      24.45933769       0.76936130
C       -8.68809190      24.21325243       0.51857786
C      -13.58826076      22.34057214       0.75948723
C      -14.82220864      21.74789254       0.50851239
C      -19.00985672      18.58308478       0.75371284
C      -20.03089794      17.67056774       0.50427988
C      -23.15348046      13.45355916       0.75330289
C      -23.86869568      12.28637751       0.50383559
C      -25.77760322       7.40180423       0.75992090
C      -26.17781738       6.09235577       0.51229453
C      -26.80332726       0.88696651       0.77071698
C      -26.86552569      -0.48054101       0.52276873
C      -26.23884665      -5.68480835       0.78281519
C      -25.97763936      -7.02893079       0.53572073
C      -24.05176681     -11.90670435       0.79105177
C      -23.45074280     -13.13695924       0.54242216
C      -20.28140462     -17.31761244       0.79239549
C      -19.36530801     -18.33511781       0.54326057
C      -15.14396050     -21.45297554       0.78845872
C      -13.97921981     -22.17294836       0.53833735
C       -9.03725208     -23.93250593       0.77458706
C       -7.71268956     -24.27223445       0.52057182
C       -2.52402331     -24.97529997       0.77191128
C       -1.16355589     -25.12601172       0.52215554
C        4.07218125     -25.00363096       0.76948295
C        5.43641038     -24.90264067       0.51802227
C       10.53710254     -23.69123911       0.76360886
C       11.84221683     -23.27738909       0.51378643
C       16.41976539     -20.70996553       0.75909636
C       17.55270997     -19.94100860       0.50930909
C       21.21396146     -16.18152574       0.75680428
C       22.07979171     -15.12111567       0.50704800
C       24.59303372     -10.51703023       0.75985421
C       25.15260649      -9.26746010       0.51142343
C       26.40622000      -4.17603969       0.76666679
C       26.63273621      -2.82604324       0.51810598
C       26.29699233       4.66651230       1.60420040
C       26.03989329       6.04187185       1.35544984
C       24.37904294      10.96425833       1.61076891
C       23.78125725      12.22953848       1.36138012
C       20.88148487      16.53998659       1.61293222
C       19.96093908      17.59387333       1.36241261
C       15.97279659      20.92367853       1.61010059
C       14.79207012      21.67511965       1.35911323
C       10.02483197      23.73735756       1.60632949
C        8.68070259      24.12233631       1.35382018
C        3.54154479      24.88596796       1.59834883
C        2.14783677      24.99100768       1.34782229
C       -3.04821291      24.95765441       1.59900591
C       -4.44242688      24.85788063       1.34786813
C       -9.54173670      23.86639899       1.59127979
C      -10.87792608      23.45269904       1.33842837
C      -15.55087698      21.18170174       1.58055382
C      -16.72075276      20.41361906       1.32895804
C      -20.56727644      16.92122293       1.57780800
C      -21.47198615      15.85384100       1.32742762
C      -24.19300441      11.42755990       1.57991091
C      -24.77883326      10.15665893       1.33094439
C      -26.26872419       5.17996355       1.58939160
C      -26.51641492       3.80289299       1.34122827
C      -26.74075335      -1.38757820       1.60076455
C      -26.65362016      -2.78413795       1.35283680
C      -25.62257916      -7.87558747       1.61159971
C      -25.19146409      -9.20687171       1.36294249
C      -22.88110006     -13.85983334       1.61667415
C      -22.11116095     -15.02824860       1.36665368
C      -18.61445930     -18.87078046       1.61553733
C      -17.54813604     -19.77727140       1.36457979
C      -13.10062823     -22.46020461       1.60951104
C      -11.81735228     -23.01542848       1.35630373
C       -6.80363963     -24.37579060       1.59886874
C       -5.42643177     -24.61462013       1.34729018
C       -0.24961772     -25.06116739       1.59871544
C        1.14747577     -25.09694927       1.34762107
C        6.32573293     -24.67473405       1.59329269
C        7.70331314     -24.43269750       1.34120541
C       12.63945184     -22.81327455       1.58612783
C       13.90324622     -22.21244189       1.33480599
C       18.18578077     -19.27079683       1.58233280
C       19.22628583     -18.33518890       1.33159505
C       22.50978008     -14.30851699       1.58212148
C       23.25438563     -13.12374278       1.33244843
C       25.35515589      -8.37219526       1.58767590
C       25.76946813      -7.03584318       1.33871103
C       26.61646175      -1.90999710       1.59563659
C       26.69619350      -0.51322532       1.34702796
C       25.72838556       6.97071895       2.41067467
C       25.34504969       8.32905589       2.14437708
C       23.23711149      13.04537417       2.41598066
C       22.51327881      14.25681756       2.14890573
C       19.21113095      18.22765411       2.41611042
C       18.17962314      19.19060939       2.14811749
C       13.89306497      22.07090561       2.41270816
C       12.63025788      22.70024926       2.14426402
C        7.70674641      24.25869732       2.40591798
C        6.32194058      24.52688919       2.13624436
C        1.16797199      24.95842562       2.40116127
C       -0.24262512      24.99960531       2.13343798
C       -5.40346679      24.66180783       2.40083267
C       -6.79946025      24.45941028       2.13117112
C      -11.76477642      23.02977611       2.39093592
C      -13.06546223      22.48342831       2.12111873
C      -17.45539364      19.76223752       2.38288078
C      -18.54906300      18.87057597       2.11477507
C      -21.99210097      15.02164114       2.38181973
C      -22.79292743      13.85959352       2.11462876
C      -25.06571805       9.22000676       2.38659278
C      -25.53550166       7.88899798       2.12085021
C      -26.55879071       2.82451480       2.39705838
C      -26.68669556       1.41877424       2.13168330
C      -26.46085644      -3.74388828       2.40873385
C      -26.24903243      -5.13948903       2.14329868
C      -24.75711102     -10.08547762       2.41790362
C      -24.19710548     -11.38096026       2.15143342
C      -21.45433529     -15.75743645       2.42067986
C      -20.56358145     -16.85197921       2.15307119
C      -16.71061631     -20.29078152       2.41794843
C      -15.54508374     -21.08586858       2.14917710
C      -10.86762647     -23.27261152       2.40820943
C       -9.52617633     -23.70810202       2.13807748
C       -4.44823855     -24.68163439       2.40156917
C       -3.04666929     -24.84225913       2.13382091
C        2.12333269     -24.99842396       2.40086723
C        3.53311104     -24.94629899       2.13160884
C        8.63785546     -24.13334720       2.39441878
C        9.99956277     -23.76432826       2.12511900
C       14.71783173     -21.66390147       2.38842360
C       15.92306035     -20.93004984       2.12017986
C       19.85295932     -17.57956655       2.38567448
C       20.80152707     -16.53477566       2.11807953
C       23.65670179     -12.22970417       2.38748833
C       24.29083580     -10.96880337       2.12098092
C       25.93043547      -6.06921359       2.39399652
C       26.22687843      -4.68926947       2.12790172
C       26.62170131       0.46334360       2.40252269
C       26.58042752       1.87416617       2.13651226
C       24.98696265       9.19190585       3.22486635
C       24.48504153      10.50084218       2.96353191
C       21.93821733      14.99410706       3.22859853
C       21.10589268      16.12170539       2.96599786
C       17.42124490      19.73894003       3.22708737
C       16.30583781      20.58716219       2.96370199
C       11.74780445      23.01235115       3.22338495
C       10.43811499      23.51051075       2.95993337
C        5.38935211      24.61089664       3.21559071
C        3.99768915      24.77774291       2.95266585
C       -1.17512960      24.93207347       3.21337698
C       -2.57695432      24.89587659       2.95134356
C       -7.70431863      24.21867474       3.20944324
C       -9.07000492      23.90431289       2.94489461
C      -13.87925566      22.01964810       3.19921780
C      -15.11048266      21.35089902       2.93467396
C      -19.19946576      18.19828041       3.19435251
C      -20.19186851      17.20879770       2.93143893
C      -23.23164861      13.03427597       3.19486454
C      -23.91423987      11.80995012       2.93333849
C      -25.74657888       6.97971176       3.20225254
C      -26.09337653       5.62115646       2.94215615
C      -26.66766390       0.48569728       3.21319235
C      -26.67597497      -0.91654551       2.95332042
C      -26.00215609      -6.03972036       3.22442123
C      -25.66898204      -7.40163679       2.96401626
C      -23.72348977     -12.18671164       3.23152769
C      -23.04780853     -13.41473339       2.96954898
C      -19.88589343     -17.49727448       3.23205971
C      -18.89700843     -18.49016180       2.96891641
C      -14.71096622     -21.51165705       3.22777368
C      -13.47938569     -22.17947577       2.96337163
C       -8.60963898     -23.90159730       3.21696779
C       -7.24550246     -24.22255209       2.95350900
C       -2.11061133     -24.86128876       3.21317088
C       -0.71188954     -24.95409190       2.95080702
C        4.45899161     -24.81004221       3.21049075
C        5.85249657     -24.65917220       2.94677509
C       10.86760831     -23.41427755       3.20372205
C       12.17820642     -22.91826433       2.93978755
C       16.65745049     -20.35020938       3.19937805
C       17.77442091     -19.50400429       2.93605086
C       21.34480579     -15.77358423       3.19787135
C       22.18206583     -14.64950768       2.93567417
C       24.61363019     -10.09215667       3.20172807
C       25.12663605      -8.78744411       2.94074499
C       26.32088719      -3.76017151       3.20897582
C       26.49706494      -2.36915994       2.94850727
C       26.44851000       2.79855702       3.21752449
C       26.28758074       4.19141262       2.95689888
C       24.04999859      11.34380451       4.03335437
C       23.41402359      12.59734709       3.76472861
C       20.45764149      16.81519037       4.03511116
C       19.50382773      17.84693024       3.76525462
C       15.48831765      21.07057105       4.03245821
C       14.28123061      21.78954150       3.76216554
C        9.51631208      23.74519129       4.02746011
C        8.15720268      24.10186078       3.75624868
C        3.04728583      24.81683405       4.02096910
C        1.64242254      24.89020486       3.75097648
C       -3.52094710      24.78510634       4.01973028
C       -4.92128567      24.65408382       3.74957570
C       -9.96852420      23.59324165       4.01245635
C      -11.29949499      23.14323525       3.74059431
C      -15.89085827      20.80899682       4.00317328
C      -17.04314765      20.00531781       3.73268204
C      -20.78607273      16.46857334       4.00067231
C      -21.66464151      15.37185305       3.73120814
C      -24.28878441      10.93854074       4.00351574
C      -24.84326022       9.64656892       3.73558620
C      -26.23313784       4.68351183       4.01274326
C      -26.44678757       3.29353299       3.74564256
C      -26.58575012      -1.86002608       4.02409178
C      -26.46104264      -3.26084459       3.75704513
C      -25.34438851      -8.29252371       4.03429562
C      -24.87443826      -9.61746994       3.76639279
C      -22.49804596     -14.18812958       4.03897013
C      -21.69205943     -15.33933926       3.76957725
C      -18.15241502     -19.07982803       4.03765997
C      -17.05523805     -19.95713649       3.76737283
C      -12.59591033     -22.53250725       4.03065301
C      -11.29415813     -23.06067141       3.75866884
C       -6.30472531     -24.36321254       4.02164134
C       -4.91447382     -24.57564269       3.75148269
C        0.23794164     -24.93265557       4.01973302
C        1.64449126     -24.94097986       3.74980318
C        6.78250414     -24.46251070       4.01472386
C        8.16047031     -24.18557496       3.74370315
C       13.02346840     -22.48495551       4.00835377
C       14.27436820     -21.84549448       3.73796020
C       18.46243195     -18.84963562       4.00504848
C       19.48066849     -17.88140828       3.73515640
C       22.66528304     -13.83283283       4.00536701
C       23.38100636     -12.62307228       3.73668835
C       25.38088609      -7.87357317       4.01081596
C       25.76282900      -6.52039711       3.74289115
C       26.52140548      -1.42110177       4.01879290
C       26.56579127      -0.01552040       3.75118340
C       26.08201838       5.11720969       4.02710626
C       25.78698482       6.49199393       3.75922040
C       22.92529334      13.39578974       4.84459909
C       22.16952505      14.57896917       4.57666596
C       18.81409651      18.48087886       4.84450477
C       17.75965058      19.40711355       4.57553604
C       13.43955465      22.20149648       4.84107306
C       12.16549836      22.79031474       4.57180808
C        7.23556394      24.27859416       4.83453803
C        5.85134428      24.51569228       4.56505317
C        0.70381052      24.89293228       4.82974038
C       -0.70058665      24.89494509       4.56156521
C       -5.84725628      24.50081322       4.82766719
C       -7.23199187      24.26541522       4.55803463
C      -12.16272281      22.77566490       4.81842222
C      -13.44028253      22.19486452       4.54809482
C      -17.76862975      19.41260206       4.81181756
C      -18.82857517      18.49253030       4.54286914
C      -22.19523745      14.60038647       4.81101214
C      -22.95820192      13.42193616       4.54325721
C      -25.15143477       8.76331559       4.81624885
C      -25.58088709       7.42594760       4.55003221
C      -26.52456735       2.36148271       4.82663242
C      -26.61367376       0.95940336       4.56089526
C      -26.31030587      -4.18391702       4.83792118
C      -26.05962108      -5.56617110       4.57197350
C      -24.49278650     -10.47185307       4.84665784
C      -23.89804578     -11.74392697       4.57939244
C      -21.09351360     -16.05965616       4.84900273
C      -20.17450213     -17.12060276       4.58041011
C      -16.27606332     -20.47811060       4.84608888
C      -15.09346381     -21.23366725       4.57627883
C      -10.40171512     -23.35126536       4.83664096
C       -9.05676226     -23.75345055       4.56642575
C       -3.98058980     -24.67038713       4.82993047
C       -2.58037369     -24.79307888       4.56176216
C        2.58130954     -24.88567709       4.82832395
C        3.98383720     -24.80406495       4.55914349
C        9.06386619     -23.93377862       4.82182124
C       10.40770917     -23.52794119       4.55220265
C       15.07293101     -21.35551283       4.81703763
C       16.24891329     -20.58946282       4.54795044
C       20.10894119     -17.18677276       4.81461922
C       21.02158293     -16.12023929       4.54634291
C       23.79856875     -11.78538313       4.81686672
C       24.39318246     -10.51310929       4.54979418
C       25.95370231      -5.60424601       4.82337750
C       26.21131573      -4.22333248       4.55692628
C       26.52980330       0.91954819       4.83172105
C       26.45012779       2.32212381       4.56535698
C       25.52321122       7.38984656       4.83956657
C       25.10293135       8.73000000       4.57269795
C       21.61978896      15.34440501       5.65142955
C       20.74806126      16.44461552       5.38311689
C       17.01830052      19.98940409       5.64975703
C       15.87157429      20.79852903       5.38065577
C       11.28919619      23.14026147       5.64541401
C        9.96094301      23.59436633       5.37578221
C        4.91541387      24.64556843       5.63836164
C        3.51662914      24.77694821       5.36917548
C       -1.64505554      24.86884599       5.63572504
C       -3.04876482      24.79622782       5.36753662
C       -8.15451445      24.06120746       5.63104701
C       -9.51310106      23.70764224       5.36090242
C      -14.27912231      21.76234249       5.62134502
C      -15.48880051      21.05095200       5.35156079
C      -19.50991887      17.84111391       5.61729007
C      -20.46820619      16.81553346       5.34871827
C      -23.43423587      12.60895697       5.61837960
C      -24.07692262      11.36037958       5.35111815
C      -25.82941562       6.51779551       5.62585174
C      -26.13256596       5.14611368       5.35990966
C      -26.63159135       0.01806169       5.63694809
C      -26.59595276      -1.38638770       5.37119720
C      -25.84586090      -6.48308048       5.64779382
C      -25.46766171      -7.83579626       5.38156199
C      -23.45320312     -12.57439354       5.65452159
C      -22.73550196     -13.78089653       5.38673576
C      -19.51808909     -17.79710952       5.65483948
C      -18.49332943     -18.75618510       5.38587456
C      -14.27114671     -21.69669709       5.64950937
C      -13.01568979     -22.32385341       5.37916396
C       -8.14215313     -23.99066404       5.63948232
C       -6.76677965     -24.27538084       5.36983315
C       -1.63745826     -24.85297349       5.63591853
C       -0.23389395     -24.90137458       5.36774285
C        4.92382291     -24.70764681       5.63247076
C        6.31562765     -24.51995537       5.36296656
C       11.29611665     -23.21003151       5.62582831
C       12.59084601     -22.66807887       5.35656652
C       17.01143539     -20.03516576       5.62216354
C       18.09978263     -19.14897058       5.35321616
C       21.59987439     -15.37610993       5.62109114
C       22.39994831     -14.22236906       5.35319283
C       24.75330956      -9.64261387       5.62510896
C       25.22429661      -8.31939809       5.35825543
C       26.34336922      -3.29058942       5.63247578
C       26.47632942      -1.89204387       5.36611430
C       26.35363419       3.25922158       5.64090763
C       26.14874481       4.64894162       5.37445415
C       24.77616886       9.61355473       5.64801155
C       24.23036194      10.90751247       5.38092976
C       20.14642911      17.16240446       6.46259064
C       19.16527083      18.16820004       6.19267252
C       15.09166734      21.31766539       6.45973564
C       13.86512996      22.00267314       6.18930813
C        9.06718852      23.87855326       6.45388178
C        7.70008364      24.20464614       6.18282993
C        2.58241032      24.86563000       6.44767606
C        1.17644721      24.90739464       6.17778109
C       -3.98542434      24.73487475       6.44598781
C       -5.38239135      24.57215740       6.17587206
C      -10.41549491      23.44948481       6.43884807
C      -11.73555570      22.96890325       6.16692092
C      -16.28671185      20.55918803       6.43029235
C      -17.41583597      19.72326035       6.15999710
C      -21.09352140      16.11824640       6.42814966
C      -21.94246973      14.99835484       6.15879216
C      -24.49077335      10.52113731       6.43139352
C      -25.01084867       9.21498567       6.16350223
C      -26.31833397       4.22943218       6.44078027
C      -26.49630216       2.83439625       6.17375198
C      -26.55370798      -2.32070913       6.45219926
C      -26.39316062      -3.71784819       6.18508428
C      -25.19332925      -8.73015839       6.46222715
C      -24.68843409     -10.04226202       6.19428623
C      -22.23453005     -14.57187194       6.46654154
C      -21.39801967     -15.70102752       6.19705565
C      -17.79045207     -19.37554623       6.46499598
C      -16.66884850     -20.22146411       6.19449133
C      -12.16645276     -22.72267062       6.45695742
C      -10.85270280     -23.22060726       6.18505918
C       -5.84686375     -24.46166278       6.44791657
C       -4.45209817     -24.64249300       6.17778047
C        0.70423844     -24.93222022       6.44649859
C        2.11080731     -24.90896941       6.17652763
C        7.24299091     -24.37628192       6.44130278
C        8.61406639     -24.06851113       6.17010305
C       13.44706302     -22.28718470       6.43550681
C       14.67981007     -21.61317127       6.16523064
C       18.81276583     -18.54130697       6.43245057
C       19.80471398     -17.54614565       6.16261684
C       22.91858168     -13.44302395       6.43305185
C       23.60170599     -12.21454204       6.16443745
C       25.52204489      -7.43219383       6.43860385
C       25.86918585      -6.06964458       6.17071894
C       26.54783314      -0.95900893       6.44665548
C       26.55692440       0.44724150       6.17904572
C       25.99285927       5.57168808       6.45493131
C       25.66269060       6.93842982       6.18701122
C       23.84493715      11.76043781       6.46110887
C       23.17565706      12.99647835       6.19242758
C       18.50227750      18.84793335       7.26167276
C       17.41766922      19.73516368       6.99830671
C       13.03631340      22.46665671       7.25787263
C       11.74467810      23.01004347       6.99391082
C        6.77771695      24.43452180       7.25074993
C        5.39047267      24.63485028       6.98702629
C        0.22801644      24.96277383       7.24667684
C       -1.17313530      24.92023899       6.98431337
C       -6.32755758      24.46521296       7.24396084
C       -7.70232179      24.19327639       6.98054505
C      -12.63130316      22.64826416       7.23421472
C      -13.88654845      22.02605190       6.96983316
C      -18.18184710      19.16177043       7.22877642
C      -19.20728920      18.20663577       6.96562532
C      -22.52112355      14.24628144       7.22820042
C      -23.24294028      13.04476915       6.96624042
C      -25.36910953       8.33710849       7.23379205
C      -25.75392235       6.98885614       6.97339529
C      -26.62235923       1.89502053       7.24451056
C      -26.66746411       0.49348803       6.98465867
C      -26.28922274      -4.66011379       7.25567861
C      -25.99441861      -6.03091882       6.99556576
C      -24.34728679     -10.92730993       7.26445708
C      -23.71172505     -12.17664594       7.00293890
C      -20.83222300     -16.46312292       7.26628915
C      -19.87767362     -17.48922023       7.00335450
C      -15.90910000     -20.79189552       7.26298295
C      -14.70334474     -21.50555753       6.99839421
C       -9.96603171     -23.56404187       7.25263365
C       -8.61254784     -23.92719733       6.98804924
C       -3.51264800     -24.78684879       7.24614587
C       -2.11302980     -24.87310236       6.98413060
C        3.06198176     -24.90381429       7.24480435
C        4.45870104     -24.78650490       6.98192186
C        9.54369264     -23.86706034       7.23767015
C       10.87055334     -23.41665317       6.97424531
C       15.51463742     -21.16026794       7.23397839
C       16.66083659     -20.35410066       6.97062912
C       20.47861866     -16.87752987       7.23172177
C       21.35297767     -15.78216285       6.96917328
C       24.06845753     -11.38867635       7.23426532
C       24.61981960     -10.09975244       6.97293641
C       26.10981592      -5.15233642       7.24093006
C       26.32361883      -3.76660997       6.98030679
C       26.56863394       1.39552999       7.24932899
C       26.44548969       2.79222188       6.98886105
C       25.44342198       7.86126974       7.25707734
C       24.98044501       9.18451347       6.99609145
C       22.72375086      13.83089789       7.26211568
C       21.92966166      14.98581102       6.99989731
C       16.70534788      20.34193039       8.07753269
C       15.52811285      21.11987831       7.80925973
C       10.88989268      23.39144355       8.07249750
C        9.54239698      23.80934644       7.80315052
C        4.47007086      24.80405177       8.06587727
C        3.06300123      24.90618064       7.79661659
C       -2.10930035      24.93473077       8.06367596
C       -3.51568535      24.82421750       7.79591017
C       -8.62521224      24.03277734       8.05941062
C       -9.98152079      23.64587160       7.78931384
C      -14.73575821      21.63118667       8.04844600
C      -15.92990449      20.87973924       7.77970990
C      -19.90870485      17.58722589       8.04465125
C      -20.84008998      16.52705169       7.77704267
C      -23.74678084      12.25757387       8.04633866
C      -24.35567688      10.98432099       7.77987363
C      -26.03488641       6.09865157       8.05452066
C      -26.29971601       4.71214066       7.78909557
C      -26.72200080      -0.43819441       8.06616425
C      -26.64774159      -1.84778546       7.80078878
C      -25.81813675      -6.94752637       8.07698548
C      -25.39939314      -8.29540969       7.81123086
C      -23.30469037     -13.01802035       8.08317357
C      -22.54849986     -14.20957980       7.81594524
C      -19.25294113     -18.18542829       8.08291458
C      -18.19336091     -19.11729804       7.81481258
C      -13.90716848     -21.99899333       8.07648340
C      -12.62731393     -22.59250232       7.80662620
C       -7.71691186     -24.20024735       8.06633376
C       -6.32904568     -24.45228173       7.79664440
C       -1.18354845     -24.97400623       8.06404549
C        0.22761770     -24.98348709       7.79632162
C        5.39369174     -24.73570398       8.06126145
C        6.78717337     -24.51696183       7.79161961
C       11.76373600     -23.13677546       8.05338874
C       13.04872996     -22.55402631       7.78495430
C       17.43909366     -19.83439252       8.04960263
C       18.50592408     -18.91074550       7.78161738
C       21.95547846     -15.06712970       8.04885273
C       22.72473978     -13.88398022       7.78179464
C       25.01045305      -9.25113359       8.05342885
C       25.44523141      -7.90836271       7.78714106
C       26.49058453      -2.84789734       8.06131571
C       26.58547809      -1.43966031       7.79531290
C       26.38688385       3.72422859       8.06993507
C       26.14316485       5.11446125       7.80383512
C       24.69123223      10.07281471       8.07684230
C       24.10548071      11.35692021       7.81032316
C       21.41558009      15.76701390       8.07968104
C       20.50709411      16.84683733       7.81207964
C       14.73437118      21.69812791       8.86289082
C       13.49341933      22.34496935       8.61154912
C        8.61928679      24.14231489       8.85634879
C        7.25125176      24.43345732       8.60424020
C        2.09129188      25.03939472       8.84987240
C        0.69377999      25.05336706       8.59876150
C       -4.49564107      24.79215465       8.85013177
C       -5.88046702      24.60260391       8.59859843
C      -10.93984153      23.42309670       8.84123253
C      -12.24246757      22.91487276       8.58804562
C      -16.78577218      20.39758051       8.83310040
C      -17.88518421      19.53144265       8.58213894
C      -21.52393401      15.82313303       8.83107811
C      -22.33758407      14.68469569       8.58107445
C      -24.82313266      10.12287249       8.83485315
C      -25.30466356       8.80892864       8.58620320
C      -26.52884787       3.76041092       8.84499654
C      -26.66910531       2.36818041       8.59708724
C      -26.64267946      -2.82706580       8.85661052
C      -26.44764406      -4.21259148       8.60844528
C      -25.14834845      -9.24234734       8.86686685
C      -24.61130307     -10.53460672       8.61790487
C      -22.06033768     -15.06093463       8.87031453
C      -21.19656361     -16.16172261       8.61991540
C      -17.48349516     -19.79564354       8.86871197
C      -16.34292888     -20.60660102       8.61710887
C      -11.75652903     -23.04765912       8.85912487
C      -10.43617615     -23.50941378       8.60624140
C       -5.37563133     -24.68245102       8.84962990
C       -3.98580432     -24.83178418       8.59849754
C        1.20571443     -25.05114770       8.84965052
C        2.60227257     -24.99588272       8.59912852
C        7.76534044     -24.41531224       8.84373719
C        9.12238355     -24.07873461       8.59125241
C       13.96159905     -22.19137599       8.83854948
C       15.16926385     -21.48408741       8.58757964
C       19.27893681     -18.30547581       8.83532109
C       20.23850129     -17.28700753       8.58481558
C       23.29939533     -13.08935949       8.83639225
C       23.94484691     -11.84771669       8.58703636
C       25.79185749      -6.99203590       8.84237385
C       26.10112709      -5.62745358       8.59362717
C       26.69702516      -0.46662984       8.85081042
C       26.67046036       0.93216496       8.60220068
C       26.01911487       6.08651857       8.85912367
C       25.65597544       7.43767104       8.61013586
C       23.73742409      12.26559131       8.86536912
C       23.03831051      13.47775020       8.61566124
C       19.90940767      17.62559499       8.86614835
C       18.90470019      18.59960804       8.61538858
C       12.71370707      22.83811480       9.68384206
C       11.42451160      23.29910923       9.43398383
C        6.37064366      24.69329992       9.67943287
C        5.01083329      24.84241019       9.42799668
C       -0.21718646      25.15080218       9.67532898
C       -1.58218708      25.04901999       9.42557360
C       -6.79265131      24.53157064       9.67692579
C       -8.12853932      24.23943160       9.42289681
C      -13.13079882      22.65966714       9.65928721
C      -14.32127207      21.98312837       9.40918407
C      -18.65531642      19.02407433       9.65449037
C      -19.60910244      18.04183317       9.40533030
C      -22.93414050      13.98389816       9.65532585
C      -23.58150084      12.77739832       9.40671322
C      -25.69172551       7.97641024       9.66208540
C      -26.00389474       6.64320297       9.41499362
C      -26.82825467       1.46653466       9.67507375
C      -26.81826770       0.09765921       9.42713253
C      -26.39162036      -5.12778250       9.68554418
C      -26.04150496      -6.45150586       9.43790836
C      -24.31984145     -11.40510711       9.69398168
C      -23.64958373     -12.59865978       9.44447509
C      -20.68894620     -16.93088841       9.69342872
C      -19.70271039     -17.88094149       9.44396246
C      -15.63573126     -21.19948247       9.68908281
C      -14.42443244     -21.83723549       9.43810339
C       -9.59564938     -23.88723237       9.67884687
C       -8.25914890     -24.18094836       9.42811059
C       -3.08880701     -25.01086347       9.67652789
C       -1.72180327     -25.05142079       9.42525561
C        3.51537192     -25.01868004       9.67863033
C        4.87587775     -24.88166411       9.42481381
C       10.03417318     -23.93786360       9.66392682
C       11.30448913     -23.42697819       9.41436816
C       16.00012893     -21.08459601       9.66021813
C       17.07972442     -20.24261566       9.41046335
C       20.92521848     -16.67264998       9.65819116
C       21.72385810     -15.56045917       9.40936770
C       24.43476598     -11.07018128       9.66219013
C       24.91275251      -9.78717370       9.41409559
C       26.37297007      -4.75179283       9.67050422
C       26.52312492      -3.39109515       9.42238130
C       26.72151654       1.84692012       9.67974170
C       26.54656091       3.20455162       9.43117676
C       25.48770621       8.33997611       9.68639328
C       24.97603514       9.60990755       9.43797209
C       22.63939041      14.30605302       9.69073671
C       21.81441939      15.39848818       9.44098044
C       18.29729567      19.29327349       9.68835213
C       17.19362109      20.10363236       9.43857355
C       10.42069690      23.73329990      10.34361183
C        9.22753156      24.07088306      10.14286341
C        3.93448679      25.03039346      10.33821920
C        2.69666029      25.10196111      10.13836977
C       -2.67193773      25.04757531      10.33857425
C       -3.90595364      24.92407923      10.14043257
C       -9.20590216      24.04748024      10.33131277
C      -10.39474866      23.69664039      10.12918067
C      -15.31019812      21.51410113      10.31823996
C      -16.33996786      20.82350769      10.11723040
C      -20.41992277      17.30794477      10.31528449
C      -21.21577920      16.35688273      10.11574129
C      -24.15936450      11.85025533      10.31784172
C      -24.66837050      10.71919115      10.11957821
C      -26.31941692       5.59872866      10.32755997
C      -26.52402043       4.37524356      10.13035890
C      -26.87045422      -0.99199565      10.33984794
C      -26.78238807      -2.22924093      10.14248668
C      -25.82538566      -7.52111285      10.35027005
C      -25.43066532      -8.69704783      10.15260131
C      -23.16556596     -13.57843808      10.35535330
C      -22.48058704     -14.61209436      10.15572936
C      -18.96529070     -18.68832843      10.35417929
C      -18.01258502     -19.48204384      10.15375957
C      -13.48903274     -22.40614914      10.34664937
C      -12.35222228     -22.90093179      10.14512404
C       -7.20999937     -24.48869439      10.33764834
C       -5.98557808     -24.68456618      10.13748993
C       -0.63629448     -25.16129092      10.33622570
C        0.60365940     -25.14357479      10.13671810
C        5.96759000     -24.81706314      10.33379166
C        7.19092677     -24.61669477      10.13238326
C       12.34638856     -23.09320644      10.32375908
C       13.46137191     -22.55091216      10.12294463
C       17.98261766     -19.62507872      10.32019494
C       18.90108190     -18.79198429      10.12014075
C       22.41851282     -14.71666308      10.32004512
C       23.06885137     -13.66065836      10.12107553
C       25.35743428      -8.78995646      10.32582026
C       25.71266319      -7.60158573      10.12783540
C       26.70619409      -2.31529473      10.33465778
C       26.76428208      -1.07631579      10.13692704
C       26.46772997       4.29317204      10.34325708
C       26.23034643       5.51050171      10.14517372
C       24.62835207      10.64508397      10.34958785
C       24.08845219      11.76162340      10.15099589
C       21.20555076      16.30656797      10.35130091
C       20.38703254      17.23804398      10.15138516
C       16.35450984      20.80543952      10.34835520
C       15.30354960      21.46334787      10.14765962
