261
Geometry Step: 1186
C     74.62807    4.93133    7.70590
H     74.62799    5.03228    8.79851
H     74.62798    3.85304    7.50273
C     92.43257    4.93115    7.70606
H     91.16071    6.63731    7.33785
H     86.07377    5.45775    6.04235
H    135.67159    3.85272    7.50301
H    126.76940    6.63722    7.33792
C    114.05208    5.55909    7.13460
C    126.76945    5.55893    7.13475
H     89.88917    3.85270    7.50304
C     73.35642    5.55938    7.13434
H     73.35649    6.63767    7.33752
H    128.04130    3.85277    7.50297
C    103.87821    5.55883    7.13484
H    126.76940    5.45798    6.04214
C    130.58471    4.93115    7.70606
H     78.44347    5.45796    6.04216
H    119.13912    5.45803    6.04209
H    119.13912    6.63727    7.33788
C     55.55192    5.55774    7.13583
H     87.34566    5.03177    8.79898
C     77.17155    4.93109    7.70612
H     73.35649    5.45843    6.04173
C     72.08461    4.93152    7.70572
H     72.08456    5.03247    8.79834
H     72.08456    3.85323    7.50255
H    110.23695    5.03195    8.79881
C    129.31294    5.55906    7.13464
C    115.32382    4.93116    7.70605
H    142.03031    5.45792    6.04219
H    101.33481    5.45801    6.04212
H     58.09522    5.45716    6.04289
C     79.71506    4.93088    7.70631
C     93.70427    5.55914    7.13456
C     70.81291    5.55951    7.13422
C    105.14992    4.93086    7.70633
C    106.42166    5.55880    7.13487
H     70.81294    6.63781    7.33740
H    125.49780    5.03188    8.79888
C    125.49776    4.93093    7.70626
C    111.50858    5.55901    7.13468
H    129.31291    6.63735    7.33781
H     88.61722    6.63713    7.33801
C     58.09537    5.55810    7.13550
H     79.71500    5.03182    8.79893
H     84.80210    3.85243    7.50328
H     70.81294    5.45856    6.04161
C     69.54116    4.93159    7.70566
H     69.54116    5.03253    8.79828
H     69.54116    3.85329    7.50250
H    133.12814    3.85284    7.50291
H    100.06290    3.85280    7.50295
H    115.32382    5.03211    8.79867
C    131.85645    5.55909    7.13460
C    107.69342    4.93089    7.70630
H     97.51946    3.85292    7.50283
H     92.43262    5.03210    8.79868
C    133.12817    4.93113    7.70608
C     68.26939    5.55950    7.13423
H     68.26936    6.63779    7.33741
C     88.61728    5.55884    7.13484
H    105.14991    5.03181    8.79894
H    110.23695    3.85271    7.50302
H    125.49780    3.85264    7.50309
C    112.78037    4.93113    7.70609
H    121.68256    6.63715    7.33799
H     92.43262    3.85286    7.50289
H     98.79132    6.63739    7.33777
H    133.12814    5.03208    8.79870
C    124.22599    5.55884    7.13483
H     68.26936    5.45855    6.04162
C     66.99771    4.93149    7.70575
H     66.99777    5.03244    8.79837
H     66.99777    3.85320    7.50258
C     97.51949    4.93122    7.70600
H     84.80210    5.03167    8.79907
H    131.85645    6.63739    7.33778
C     86.07381    5.55869    7.13497
H    122.95425    3.85260    7.50312
H    115.32382    3.85287    7.50288
H     91.16072    5.45807    6.04206
H     88.61722    5.45789    6.04222
C     65.72588    5.55932    7.13439
H     65.72579    6.63762    7.33757
C    138.21513    4.93091    7.70628
H    105.14991    3.85257    7.50315
C    136.94343    5.55889    7.13479
H     89.88917    5.03194    8.79882
H    112.78040    5.03207    8.79870
H    138.21511    3.85261    7.50311
H    122.95425    5.03184    8.79891
H     77.17147    3.85279    7.50295
H    124.22598    6.63713    7.33801
C     80.98687    5.55874    7.13493
H     65.72579    5.45838    6.04178
H     64.45438    3.85295    7.50281
H     64.45438    5.03219    8.79859
C     64.45426    4.93124    7.70598
C     82.25857    4.93075    7.70643
H    134.40000    6.63731    7.33784
H     86.07377    6.63699    7.33814
H    121.68256    5.45791    6.04220
C    122.95426    4.93090    7.70629
H    108.96507    5.45793    6.04218
H     82.25855    3.85245    7.50326
H     80.98692    6.63703    7.33810
C     63.18236    5.55900    7.13469
H     63.18222    6.63729    7.33786
C     83.53034    5.55866    7.13500
H     96.24778    5.45823    6.04191
H     75.90001    5.45820    6.04194
C     96.24777    5.55918    7.13453
H    112.78040    3.85283    7.50291
H    135.67159    5.03196    8.79880
C    121.68254    5.55886    7.13482
H     56.82393    3.85168    7.50397
C     87.34561    4.93082    7.70637
H    124.22598    5.45789    6.04222
H     63.18222    5.45805    6.04207
H     61.91095    3.85256    7.50316
H     61.91095    5.03180    8.79895
C     61.91080    4.93085    7.70634
H    103.87824    6.63712    7.33801
C    139.48688    5.55883    7.13484
H    136.94347    5.45794    6.04217
H     77.17147    5.03203    8.79874
C    134.39995    5.55902    7.13467
H    108.96507    6.63717    7.33797
H     75.90001    6.63744    7.33773
H    131.85645    5.45815    6.04199
C     60.63885    5.55856    7.13509
C     56.82380    4.92997    7.70714
H     93.70424    6.63743    7.33773
H     60.63869    6.63685    7.33826
H    103.87824    5.45788    6.04223
H     82.25855    5.03170    8.79904
H    101.33481    6.63725    7.33790
H     80.98692    5.45779    6.04231
C    102.60643    4.93095    7.70625
C    101.33475    5.55895    7.13473
H    117.86723    3.85281    7.50294
C     91.16077    5.55901    7.13467
H     60.63869    5.45761    6.04247
C     59.36731    4.93039    7.70676
H     59.36748    5.03134    8.79937
H     59.36748    3.85210    7.50358
H     98.79132    5.45815    6.04198
H     79.71500    3.85258    7.50314
H     32.66085    5.46229    6.03821
C    135.67163    4.93102    7.70619
H     93.70424    5.45819    6.04194
H     32.66084    6.64154    7.33400
H    117.86723    5.03205    8.79872
H    136.94347    6.63718    7.33796
C     32.66068    5.56324    7.13082
H     33.93196    5.03597    8.79515
H     33.93195    3.85674    7.49936
C     33.93218    4.93503    7.70253
H    128.04130    5.03201    8.79876
H    107.69344    3.85260    7.50313
H     35.20450    5.46167    6.03878
H    138.21511    5.03185    8.79890
C    128.04125    4.93106    7.70615
H     35.20451    6.64091    7.33457
C    117.86728    4.93110    7.70611
C     89.88910    4.93099    7.70621
C     35.20424    5.56261    7.13140
H     36.47531    5.03522    8.79584
H     36.47532    3.85598    7.50006
C     36.47562    4.93427    7.70322
H    111.50854    6.63730    7.33785
H    114.05207    6.63739    7.33778
H     37.74809    5.46081    6.03956
C     98.79127    5.55910    7.13459
H    140.75864    5.03184    8.79891
H     37.74809    6.64006    7.33535
C    116.59558    5.55908    7.13461
C     84.80209    4.93072    7.70645
C     37.74777    5.56176    7.13217
H     39.01874    5.03430    8.79668
H     39.01874    3.85506    7.50089
C     39.01908    4.93335    7.70406
H     96.24777    6.63747    7.33770
H    114.05207    5.45815    6.04199
H     40.29162    5.45985    6.04044
H    134.40000    5.45807    6.04205
H    139.48689    6.63712    7.33801
H     40.29163    6.63909    7.33623
H    142.03031    6.63716    7.33798
H    116.59560    6.63738    7.33778
C     40.29127    5.56079    7.13305
H     41.56221    5.03330    8.79758
H     41.56221    3.85406    7.50180
C     41.56257    4.93235    7.70497
C    108.96511    5.55888    7.13480
C    142.03034    5.55886    7.13481
H     42.83511    5.45884    6.04136
H     87.34566    3.85253    7.50319
H     94.97605    5.03218    8.79860
H     42.83511    6.63808    7.33714
H    140.75864    3.85260    7.50312
H    116.59560    5.45814    6.04200
C     42.83476    5.55978    7.13397
H     44.10574    5.03231    8.79848
H     44.10574    3.85307    7.50269
C     44.10607    4.93136    7.70587
H    130.58472    3.85286    7.50289
C     78.44340    5.55891    7.13477
H     45.37851    5.45791    6.04220
H    120.41071    3.85268    7.50305
H    106.42165    6.63709    7.33804
H     45.37851    6.63715    7.33799
H    107.69344    5.03184    8.79892
H     83.53036    6.63695    7.33817
C     45.37821    5.55885    7.13482
H     46.64935    5.03148    8.79924
H     46.64936    3.85224    7.50345
C     46.64961    4.93053    7.70663
H     94.97605    3.85294    7.50282
H     97.51946    5.03216    8.79862
H     47.92184    5.45720    6.04285
H    120.41071    5.03192    8.79884
H    106.42165    5.45786    6.04225
H     47.92184    6.63644    7.33864
H    100.06290    5.03204    8.79873
C    140.75863    4.93090    7.70630
C     47.92164    5.55814    7.13547
H     49.19301    5.03091    8.79977
H     49.19301    3.85166    7.50397
C     49.19316    4.92996    7.70715
H     58.09522    6.63640    7.33867
H    139.48689    5.45788    6.04223
H     50.46515    5.45678    6.04324
C    120.41075    4.93097    7.70623
H     56.82393    5.03092    8.79976
H     50.46515    6.63601    7.33902
H     78.44347    6.63720    7.33794
C    110.23691    4.93101    7.70620
C     50.46506    5.55771    7.13586
H     51.73667    5.03063    8.80001
H     51.73667    3.85139    7.50422
C     51.73671    4.92968    7.70740
H    102.60639    3.85265    7.50308
C    100.06295    4.93109    7.70612
H     53.00847    5.45666    6.04335
C    119.13907    5.55897    7.13471
H    129.31291    5.45811    6.04202
H     53.00847    6.63589    7.33913
C     75.89992    5.55915    7.13455
C     94.97604    4.93124    7.70599
C     53.00848    5.55759    7.13597
H     54.28032    5.03065    8.79999
H     54.28031    3.85141    7.50420
C     54.28026    4.92971    7.70738
H    102.60639    5.03189    8.79887
H     83.53036    5.45771    6.04238
H     55.55182    5.45680    6.04321
H    130.58472    5.03210    8.79868
H    111.50854    5.45806    6.04206
H     55.55182    6.63604    7.33900
