140
Properties=species:S:1:pos:R:3 pbc="F F F"
C        6.65332837      -0.38620523       0.04998615
C        6.30678169       0.80842885      -0.15768891
C        1.51699609       2.56562175       0.06717783
C        0.29985298       2.80121178      -0.14513145
C       -5.08029353       3.01002584       0.11140913
C       -6.11041159       2.31454454      -0.11538133
C       -4.70355041      -1.65644798       0.02360453
C       -3.49038350      -1.91047591      -0.15239249
C        1.71299884      -3.47294872       0.09890689
C        2.95037207      -3.57601897      -0.10857550
C        5.59398663       1.64691852       0.75612050
C        4.47530345       2.44489770       0.50214727
C       -0.77789535       2.88481289       0.77990977
C       -2.10613044       3.24511366       0.55919644
C       -6.68513116       1.36950237       0.79082400
C       -6.94888780       0.01668375       0.50679835
C       -2.43577062      -2.15166781       0.77394374
C       -1.20916248      -2.78088264       0.53089987
C        4.02079276      -3.33876737       0.80562710
C        5.35534953      -2.98571943       0.54931412
C        3.54017595       2.52330971       1.57723129
C        2.14607999       2.58467279       1.33652517
C       -3.03263377       3.17928046       1.62321446
C       -4.44380424       3.13073643       1.37404287
C       -6.46119616      -0.80409712       1.59158555
C       -5.31432531      -1.58642382       1.31708581
C       -0.28147093      -2.91103180       1.59502345
C        1.07849595      -3.28192367       1.35655136
C        5.99266002      -2.26746611       1.60499910
C        6.62664909      -1.01292852       1.32925917
C        1.16632755       2.56169222       2.39516112
C       -0.23974795       2.68955044       2.13007552
C       -5.34580024       2.72173394       2.43692419
C       -6.42704920       1.83007481       2.15431889
C       -4.36931239      -1.89621204       2.37563778
C       -2.97596114      -2.11059188       2.12788256
C        2.05536932      -3.32377459       2.42308507
C        3.46728421      -3.34816131       2.15961519
C        6.57252912      -0.00736800       2.38827767
C        5.96728580       1.26330288       2.11540538
C       -1.16776883       2.77788895       3.21484936
C       -2.55775402       3.00115074       2.96865474
C       -6.83222362       0.95414488       3.23172018
C       -6.69265438      -0.44438892       2.95447048
C       -2.05533357      -2.27327946       3.21238776
C       -0.71185318      -2.67298095       2.94547913
C        4.38846754      -3.16140313       3.23989277
C        5.65427432      -2.55774158       2.96653049
C        5.27028659       1.90225944       3.19844860
C        3.97954971       2.44426798       2.93462671
C       -3.49528660       2.99126392       4.05370294
C       -4.88874724       2.84310487       3.78839749
C       -6.07589769      -1.21606508       4.00941470
C       -4.83368288      -1.85821370       3.72768506
C        0.21408232      -2.85268773       4.02300258
C        1.58687551      -3.16578760       3.76709689
C        6.26952291      -1.80704230       4.03262460
C        6.63154818      -0.45524535       3.74505484
C        3.03843258       2.58913158       4.00482202
C        1.63638018       2.61554979       3.74479431
C       -5.75125248       2.43160828       4.85842883
C       -6.68549975       1.38633156       4.57724857
C       -3.92849146      -2.12018670       4.80844657
C       -2.53416388      -2.27472241       4.55662291
C        2.51848287      -3.24091829       4.84937597
C        3.92027415      -3.21997503       4.58450023
C        6.46294938       0.49087348       4.81827228
C        5.63782453       1.62320336       4.54401586
C        0.70235109       2.62853069       4.82855464
C       -0.69794081       2.62597707       4.55897648
C       -6.86767085       0.42591633       5.64745859
C       -6.37878784      -0.88769018       5.36161592
C       -1.60915397      -2.41833358       5.63850894
C       -0.23182106      -2.67087856       5.36893226
C        4.83399422      -2.95454397       5.65912144
C        5.98705737      -2.16010611       5.38427791
C        4.84559604       2.15229438       5.61928351
C        3.50536263       2.56127236       5.35223625
C       -1.63302816       2.67122168       5.64138772
C       -3.02563689       2.85424537       5.39468422
C       -5.69279951      -1.56412779       6.42692188
C       -4.40891273      -2.12024695       6.15246510
C        0.68640042      -2.84276181       6.45287240
C        2.05855071      -3.13745941       6.19575827
C        6.47362783      -1.33169818       6.45693747
C        6.60718442       0.06166984       6.16965053
C        2.58073897       2.71134343       6.43303266
C        1.17402294       2.71047215       6.17476411
C       -3.96203167       2.85132252       6.48050750
C       -5.34431408       2.63222951       6.20844467
C       -3.50041311      -2.37228374       7.23358438
C       -2.09707851      -2.46830934       6.98281468
C        3.00363854      -3.23601654       7.26739544
C        4.39642698      -3.09912894       7.00510566
C        6.27962159       0.97584700       7.23695038
C        5.26827865       1.94800375       6.96442398
C        0.23040607       2.71631168       7.25200714
C       -1.16285334       2.56292301       6.98509689
C       -6.18371181       2.12500664       7.26766004
C       -6.83580654       0.87975585       6.99329795
C       -1.16967832      -2.56269780       8.06741046
C        0.23663129      -2.68795820       7.80232639
C        5.26184427      -2.71915613       8.08707069
C        6.26434707      -1.73165576       7.81364128
C        4.43504962       2.38657073       8.04471735
C        3.06830194       2.73795506       7.77882103
C       -2.09651400       2.59514589       8.07073633
C       -3.49930956       2.74496932       7.82944075
C       -6.77307962      -0.08618689       8.06986893
C       -6.06991541      -1.29733328       7.78202073
C        1.19018100      -2.90785435       8.86123538
C        2.55878730      -3.18481641       8.62452912
C        6.66566366      -0.80781461       8.87246709
C        6.49870719       0.58700626       8.59780979
C        2.10608018       2.92619174       8.84453196
C        0.69834296       2.85981646       8.60307816
C       -4.48585468       2.71987043       8.89364693
C       -5.83085091       2.37537154       8.62895431
C       -5.33465419      -1.97339459       8.84007539
C       -3.99555886      -2.41770766       8.58193633
C        3.47550377      -3.36866595       9.70009536
C        4.78606789      -2.95973803       9.44736313
C        6.12118990       1.46737130       9.65828348
C        4.95414273       2.20550789       9.39985130
C       -0.23964725       2.91127787       9.66658573
C       -1.55889441       2.51119701       9.42354050
C       -6.57996371       1.78915785       9.71653632
C       -6.83551564       0.43516490       9.43434732
C       -3.10901469      -2.71954640       9.64162042
C       -1.73394706      -2.64203981       9.41793541
C        5.73830302      -2.40605869      10.35933632
C        6.47375411      -1.40313653      10.15360470
C        3.98700216       2.72253849      10.31422788
C        2.76604399       2.94678105      10.10347656
C       -2.63828777       2.50486964      10.35355840
C       -3.87504039       2.58634963      10.18197045
C       -6.62403070      -0.65263594      10.33932119
C       -5.88886336      -1.65387202      10.10718307
C       -0.65868887      -2.76891219      10.34261792
C        0.58096058      -2.75443623      10.13030995
