420
Properties=species:S:1:pos:R:3 pbc="F F F"
C       15.91343806       0.12049068       0.06254362
C       15.88533784       1.36017851      -0.14023078
C       14.48863390       6.58264699       0.06254253
C       13.95873191       7.70372656      -0.14023163
C       10.55861915      11.90660738       0.06254177
C        9.61855041      12.71523994      -0.14023258
C        4.80292990      15.17181593       0.06254152
C        3.61523260      15.52817266      -0.14023251
C       -1.78323631      15.81366407       0.06254034
C       -3.01319500      15.65613265      -0.14023379
C       -8.06106562      13.72119480       0.06254144
C       -9.12061554      13.07701432      -0.14023185
C      -12.94505621       9.25620059       0.06254295
C      -13.65099033       8.23675392      -0.14023117
C      -15.59074099       3.19073106       0.06254365
C      -15.82100261       1.97229160      -0.14023007
C      -15.54063989      -3.42644540       0.06254302
C      -15.25540283      -4.63319919      -0.14023143
C      -12.80340902      -9.45115534       0.06254116
C      -12.05200469     -10.43756628      -0.14023295
C       -7.85236743     -13.84168444       0.06254079
C       -6.76471604     -14.43719213      -0.14023293
C       -1.54357481     -15.83885331       0.06254175
C       -0.30774101     -15.94048804      -0.14023189
C        5.03211810     -15.09734900       0.06254464
C        6.20244758     -14.68753984      -0.14022865
C       10.73770654     -11.74536572       0.06254557
C       11.64016738     -10.89496616      -0.14022912
C       14.58664591      -6.36250093       0.06254315
C       15.06520171      -5.21856068      -0.14023092
C       15.67005303       2.43386090       0.77191101
C       15.49292806       3.79500752       0.52494609
C       13.32535397       8.59702060       0.77190958
C       12.60991085       9.76844437       0.52494401
C        8.67659729      13.27368918       0.77190961
C        7.54655068      14.05284801       0.52494433
C        2.52757298      15.65521075       0.77190871
C        1.17831062      15.90736929       0.52494334
C       -4.05849328      15.32979919       0.77190799
C       -5.39366811      15.01136392       0.52494269
C       -9.94280944      12.35373091       0.77190981
C      -11.03303367      11.51976184       0.52494507
C      -14.10791776       7.24158596       0.77191076
C      -14.76468122       6.03628323       0.52494531
C      -15.83365552       0.87731115       0.77191126
C      -15.94340193      -0.49091739       0.52494647
C      -14.82159010      -5.63865897       0.77190992
C      -14.36533265      -6.93323313       0.52494415
C      -11.24674285     -11.17965506       0.77190815
C      -10.30338458     -12.17673490       0.52494319
C       -5.72723785     -14.78759317       0.77190846
C       -4.45988747     -15.31477090       0.52494353
C        0.78256320     -15.83861572       0.77190970
C        2.15476771     -15.80473946       0.52494570
C        7.15705375     -14.15100596       0.77191265
C        8.39684645     -13.56193266       0.52494834
C       12.29401444     -10.01654350       0.77191196
C       13.18701982      -8.97412630       0.52494621
C       15.30523958      -4.15013969       0.77191042
C       15.69705753      -2.83462783       0.52494538
C       15.11387661       4.64790990       1.59044118
C       14.65550343       5.97495774       1.34048168
C       11.91673017      10.39344076       1.59043951
C       10.95823079      11.41932615       1.34048030
C        6.65908724      14.34186453       1.59043983
C        5.36618856      14.88919895       1.34048047
C        0.25001918      15.81043608       1.59043851
C       -1.15372341      15.78458012       1.34047908
C       -6.20227919      14.54524345       1.59043867
C       -7.47414618      13.95067067       1.34047994
C      -11.58214403      10.76504448       1.59044060
C      -12.50221569       9.70455875       1.34048158
C      -14.95935312       5.12347262       1.59044117
C      -15.36854725       3.78044539       1.34048226
C      -15.74996369      -1.40399112       1.59044143
C      -15.57751723      -2.79734101       1.34048189
C      -13.81724031      -7.68869049       1.59043967
C      -13.09297724      -8.89143913       1.34048010
C       -9.49540637     -12.64395216       1.59043866
C       -8.34455863     -13.44813569       1.34047932
C       -3.53172801     -15.41295830       1.59043906
C       -2.15328483     -15.67952199       1.34048025
C        3.04262050     -15.51692401       1.59044119
C        4.41031303     -15.19978146       1.34048266
C        9.09087173     -12.93787258       1.59044311
C       10.21132449     -12.09185403       1.34048401
C       13.56722030      -8.12173613       1.59044157
C       14.24670125      -6.89313225       1.34048207
C       15.69769065      -1.90128938       1.59044056
C       15.81871025      -0.50253390       1.34048168
C       14.17372296       6.83170907       2.39707370
C       13.51816230       8.08387634       2.13067744
C       10.16963402      12.00605426       2.39707246
C        9.06145020      12.88332910       2.13067715
C        4.40712444      15.10444618       2.39707251
C        3.03792751      15.45513406       2.13067639
C       -2.11742132      15.59113372       2.39707113
C       -3.51088275      15.35460097       2.13067576
C       -8.27584538      13.38197702       2.39707262
C       -9.45262899      12.59912114       2.13067726
C      -13.00329517       8.85894971       2.39707375
C      -13.75992484       7.66513456       2.13067857
C      -15.48236923       2.80413646       2.39707456
C      -15.68801948       1.40578356       2.13067895
C      -15.28439322      -3.73553831       2.39707380
C      -14.90349679      -5.09664111       2.13067804
C      -12.44359903      -9.62930282       2.39707223
C      -11.54202607     -10.71781045       2.13067629
C       -7.45120635     -13.85808218       2.39707173
C       -6.18484209     -14.48578010       2.13067632
C       -1.17042673     -15.69066676       2.39707266
C        0.24176224     -15.74902016       2.13067759
C        5.31273129     -14.81019813       2.39707524
C        6.62656483     -14.28911807       2.13068016
C       10.87726451     -11.36890197       2.39707571
C       11.86556602     -10.35848514       2.13067993
C       14.56102229      -5.96182295       2.39707413
C       15.05291214      -4.63678458       2.13067818
C       15.72705730       0.47610519       2.39707379
C       15.63747647       1.88665751       2.13067855
C       12.96884631       8.84264399       3.21056768
C       12.14554246       9.97782833       2.94619782
C        8.25100744      13.35307262       3.21056776
C        7.03716181      14.05524807       2.94619785
C        2.10648891      15.55462676       3.21056671
C        0.71198471      15.70237792       2.94619676
C       -4.40226198      15.06664372       3.21056656
C       -5.73630071      14.63442601       2.94619681
C      -10.14981973      11.97350099       3.21056806
C      -11.19272506      11.03604640       2.94619868
C      -14.14237924       6.81002940       3.21056936
C      -14.71382670       5.52943599       2.94619939
C      -15.68960656       0.46904798       3.21056947
C      -15.69078420      -0.93326104       2.94619958
C      -14.52393941      -5.95303671       3.21056850
C      -13.95464218      -7.23458749       2.94619799
C      -10.84695848     -11.34578961       3.21056684
C       -9.80562889     -12.28499388       2.94619685
C       -5.29444402     -14.77675688       3.21056697
C       -3.96113228     -15.21121337       2.94619735
C        1.17353205     -15.65268360       3.21056854
C        2.56828228     -15.50727418       2.94619919
C        7.43859397     -13.82212291       3.21057078
C        8.65361739     -13.12198646       2.94620124
C       12.41744798      -9.60158119       3.21057034
C       13.24265618      -8.46778108       2.94619994
C       15.24922492      -3.72084928       3.21056845
C       15.54193495      -2.34942905       2.94619882
C       15.44426866       2.80325277       3.21056927
C       15.15386153       4.17516209       2.94619917
C       11.48552947      10.65896582       4.01782522
C       10.48702656      11.64729929       3.74807714
C        6.15716539      14.40904483       4.01782532
C        4.84299566      14.90580253       3.74807703
C       -0.23583397      15.66766066       4.01782427
C       -1.63843756      15.58694992       3.74807583
C       -6.58805537      14.21719832       4.01782478
C       -7.83656932      13.57297487       3.74807697
C      -11.80113786      10.30844849       4.01782650
C      -12.67968229       9.21210407       3.74807827
C      -14.97370224       4.61727956       4.01782733
C      -15.33037342       3.25838422       3.74807904
C      -15.55718136      -1.87225836       4.01782699
C      -15.33029903      -3.25874134       3.74807857
C      -13.45066631      -8.03806358       4.01782568
C      -12.67946705      -9.21239836       3.74807693
C       -9.01842217     -12.81402228       4.01782438
C       -7.83625257     -13.57315709       3.74807639
C       -3.02680807     -15.37431745       4.01782527
C       -1.63807422     -15.58698796       3.74807708
C        3.48817046     -15.27625369       4.01782706
C        4.84334341     -14.90569014       3.74807960
C        9.40001036     -12.53678323       4.01782880
C       10.48729844     -11.64705565       3.74808022
C       13.68650057      -7.62958745       4.01782725
C       14.31790648      -6.37454277       3.74807863
C       15.60648342      -1.40317407       4.01782634
C       15.67282765       0.00018244       3.74807824
C       14.82794846       5.06586232       4.01782647
C       14.31775751       6.37487574       3.74807824
C        9.75803712      12.23399564       4.82966311
C        8.62302693      13.05964671       4.56023409
C        3.93839919      15.14526709       4.82966303
C        2.56569232      15.43788417       4.56023347
C       -2.56222682      15.43778070       4.82966207
C       -3.93527477      15.14676998       4.56023295
C       -8.61981891      13.06096196       4.82966334
C       -9.75579554      12.23663985       4.56023445
C      -13.18696205       8.42578042       4.82966477
C      -13.88944790       7.21068262       4.56023574
C      -15.47397212       2.33371268       4.82966499
C      -15.62150174       0.93793890       4.56023607
C      -15.08538147      -4.16187687       4.82966468
C      -14.65243975      -5.49698371       4.56023515
C      -12.08838796      -9.93783901       4.82966275
C      -11.14984227     -10.98142943       4.56023370
C       -7.00121232     -13.99546649       4.82966260
C       -5.71934113     -14.56709175       4.56023340
C       -0.70345814     -15.63314475       4.82966329
C        0.70009021     -15.63396613       4.56023495
C        5.71593046     -14.56771270       4.82966591
C        6.99846977     -13.99758797       4.56023704
C       11.14697788     -10.98338273       4.82966610
C       12.08674399      -9.94089195       4.56023678
C       14.65061804      -5.49993366       4.82966438
C       15.08512178      -4.16533432       4.56023497
C       15.62103641       0.93450333       4.82966428
C       15.47514114       2.33044839       4.56023552
C       13.89042051       7.20735460       4.82966410
C       13.18935679       8.42327370       4.56023442
C        7.82305627      13.55399580       5.63724989
C        6.57690911      14.19980157       5.36782080
C        1.63381316      15.56411533       5.63724981
C        0.23272769      15.64723339       5.36782021
C       -4.83793228      14.88305985       5.63724898
C       -6.15169419      14.38911893       5.36782022
C      -10.47315128      11.62858318       5.63725119
C      -11.47242804      10.64298924       5.36782219
C      -14.29746844       6.36342068       5.63725169
C      -14.80947974       5.05659523       5.36782294
C      -15.64963399      -0.00203025       5.63725228
C      -15.58584329      -1.40412846       5.36782286
C      -14.29581817      -6.36713045       5.63725096
C      -13.66725661      -7.62206412       5.36782144
C      -10.47013426     -11.63129950       5.63724954
C       -9.38548952     -12.52208224       5.36782018
C       -4.83407104     -14.88431405       5.63724956
C       -3.48088387     -15.25691754       5.36782073
C        1.63785054     -15.56369136       5.63725103
C        3.02560011     -15.35369156       5.36782265
C        7.82657163     -13.55196484       5.63725336
C        9.00892833     -12.79566988       5.36782433
C       12.66200341      -9.19697556       5.63725211
C       13.43452898      -8.02515978       5.36782302
C       15.30807199      -3.25175541       5.63725108
C       15.53718967      -1.86703348       5.36782210
C       15.30722598       3.25572602       5.63725116
C       14.95331442       4.61392150       5.36782219
C       12.65961670       9.20026040       5.63725062
C       11.78387730      10.29708784       5.36782108
C        5.72609536      14.58935814       6.44940692
C        4.39550956      15.04030395       6.17965854
C       -0.70297649      15.65705428       6.44940620
C       -2.10194333      15.52781651       6.17965783
C       -7.01049639      14.01750561       6.44940661
C       -8.23594972      13.33042806       6.17965880
C      -12.10583269       9.95419588       6.44940846
C      -12.94588085       8.82808283       6.17966054
C      -15.10796940       4.16972328       6.44940908
C      -15.41736381       2.79929047       6.17966068
C      -15.49780053      -2.33573267       6.44940904
C      -15.22303627      -3.71352632       6.17966051
C      -13.20790918      -8.43731772       6.44940735
C      -12.39650238      -9.58423957       6.17965862
C       -8.63426259     -13.08002147       6.44940627
C       -7.42651101     -13.79775874       6.17965814
C       -2.56766941     -15.46106761       6.44940693
C       -1.17240318     -15.62551471       6.17965879
C        3.94289784     -15.16875361       6.44940909
C        5.28442381     -14.75147789       6.17966145
C        9.77169935     -12.25361952       6.44941041
C       10.82752161     -11.32677000       6.17966184
C       13.91088707      -7.21972696       6.44940868
C       14.49844893      -5.94356816       6.17966008
C       15.64476488      -0.93748211       6.44940821
C       15.66246576       0.46733009       6.17965987
C       14.67350359       5.50686269       6.44940815
C       14.11828442       6.79742160       6.17965974
C       11.16506837      10.99902369       6.44940716
C       10.13293569      11.95218303       6.17965880
C        3.49108360      15.32592386       7.25128625
C        2.10752588      15.55448580       6.98691646
C       -3.04435018      15.42088277       7.25128535
C       -4.40125720      15.06694112       6.98691528
C       -9.05338529      12.84942551       7.25128680
C      -10.14901958      11.97417778       6.98691753
C      -13.49700477       8.05618412       7.25128813
C      -14.14192394       6.81097274       6.98691816
C      -15.60688321       1.86996420       7.25128851
C      -15.68957339       0.47009459       6.98691865
C      -15.01817593      -4.63959206       7.25128797
C      -14.52433575      -5.95206824       6.98691753
C      -11.83269156     -10.34692086       7.25128604
C      -10.84771668     -11.34506750       6.98691610
C       -6.60123363     -14.26517985       7.25128572
C       -5.29543082     -14.77640529       6.98691578
C       -0.22835805     -15.71685395       7.25128688
C        1.17248637     -15.65276344       6.98691742
C        6.18400257     -14.45094068       7.25128936
C        7.43766918     -13.82261543       6.98691970
C       11.52708805     -10.68632323       7.25128944
C       12.41680706      -9.60240826       6.98691895
C       14.87704581      -5.07395340       7.25128753
C       15.24897923      -3.72186695       6.98691743
C       15.65462339       1.41575133       7.25128777
C       15.44445382       2.80222190       6.98691761
C       13.72536215       7.66065788       7.25128719
C       12.96943620       8.84177967       6.98691724
C        9.42287566      12.58097550       7.25128635
C        8.25189867      13.35252210       6.98691617
C        1.18318477      15.70637465       8.06680682
C       -0.22996625      15.73258137       7.80041079
C       -5.30746356      14.82973600       8.06680604
C       -6.60909977      14.27889494       7.80041101
C      -10.88039823      11.38889074       8.06680826
C      -11.84545401      10.35624853       7.80041279
C      -14.57201671       5.97880910       8.06680885
C      -15.03363034       4.64292167       7.80041351
C      -15.74400983      -0.46505949       8.06680925
C      -15.62235672      -1.87320823       7.80041349
C      -14.19370375      -6.82851536       8.06680787
C      -13.50982272      -8.06544272       7.80041197
C      -10.18918836     -12.01126383       8.06680652
C       -9.06132979     -12.86309565       7.80041087
C       -4.42286879     -15.11715698       8.06680660
C       -3.04604679     -15.43660059       7.80041117
C        2.10820733     -15.60915184       8.06680840
C        3.49592635     -15.34097433       7.80041367
C        8.27475344     -13.40218012       8.06681058
C        9.43341910     -12.59275006       7.80041486
C       13.01051770      -8.87784981       8.06680923
C       13.73978992      -7.66712913       7.80041358
C       15.49665791      -2.81846677       8.06680810
C       15.67043553      -1.41579620       7.80041242
C       15.30326949       3.72825835       8.06680809
C       14.89150252       5.08034230       7.80041292
C       12.46380749       9.63033313       8.06680766
C       11.53770114      10.69804582       7.80041164
C        7.46925026      13.86724365       8.06680681
C        6.18893153      14.46596457       7.80041147
C       -1.21173208      15.78023778       8.85700271
C       -2.60364960      15.59658855       8.60704335
C       -7.52537001      13.92310903       8.85700341
C       -8.72225121      13.18918944       8.60704474
C      -12.53779601       9.65854055       8.85700514
C      -13.33269123       8.50125765       8.60704615
C      -15.38233710       3.72393382       8.85700552
C      -15.63780359       2.34339088       8.60704653
C      -15.56712578      -2.85457666       8.85700567
C      -15.23898360      -4.21967189       8.60704624
C      -13.06021052      -8.93950466       8.85700378
C      -12.20520647     -10.05311581       8.60704425
C       -8.29507628     -13.47871778       8.85700308
C       -7.06104465     -14.14829076       8.60704383
C       -2.09564362     -15.68733523       8.85700364
C       -0.69595964     -15.79709298       8.60704497
C        4.46614562     -15.18346627       8.85700627
C        5.78946287     -14.71443189       8.60704756
C       10.25569313     -12.05423412       8.85700721
C       11.27382981     -11.08750781       8.60704782
C       14.27194515      -6.84072310       8.85700529
C       14.80886030      -5.54346337       8.60704572
C       15.82045175      -0.44439036       8.85700479
C       15.78330019       0.95909889       8.60704575
C       14.63344017       6.02878256       8.85700496
C       14.02865046       7.29582259       8.60704545
C       10.91618801      11.45952884       8.85700373
C        9.84833602      12.37104059       8.60704420
C        5.31142636      14.90881863       8.85700382
C        3.96514862      15.30718832       8.60704449
C       -3.53602070      15.55408794       9.67253831
C       -4.83262937      15.10364430       9.42557357
C       -9.55672459      12.77112916       9.67254031
C      -10.55802324      11.83224990       9.42557561
C      -13.92498090       7.77993030       9.67254187
C      -14.45784144       6.51495886       9.42557666
C      -15.88550027       1.44351963       9.67254162
C      -15.85777840       0.07117688       9.42557666
C      -15.09924943      -5.14249119       9.67254136
C      -14.51574369      -6.38491363       9.42557597
C      -11.70221331     -10.83932156       9.67253946
C      -10.66381582     -11.73699828       9.42557418
C       -6.28175833     -14.66193837       9.67253905
C       -4.96801685     -15.05965231       9.42557445
C        0.22487297     -15.94936885       9.67254032
C        1.58680013     -15.77834948       9.42557614
C        6.69262094     -14.47900428       9.67254276
C        7.86724316     -13.76882447       9.42557859
C       12.00314811     -10.50508572       9.67254322
C       12.78736646      -9.37854492       9.42557765
C       15.23823971      -4.71475614       9.67254046
C       15.49645111      -3.36663900       9.42557577
C       15.83848589       1.89080445       9.67254122
C       15.52604246       3.22739432       9.42557608
C       13.70010634       8.16942382       9.67254095
C       12.87103947       9.26338024       9.42557558
C        9.19287395      13.03548863       9.67253947
C        7.99052907      13.69765199       9.42557446
C        3.09609753      15.64758557       9.67254008
C        1.72837530      15.76346787       9.42557446
C       -5.88920640      14.81591710      10.33771534
C       -7.01052430      14.28651985      10.13494176
C      -11.40622265      11.13964690      10.33771731
C      -12.21527256      10.19993784      10.13494388
C      -14.95100736       5.53724231      10.33771833
C      -15.30790224       4.34970669      10.13494432
C      -15.91063267      -1.02260028      10.33771791
C      -15.75365281      -2.25262969      10.13494426
C      -14.11914873      -7.40562679      10.33771705
C      -13.47544483      -8.46546647      10.13494276
C       -9.88634901     -12.50815829      10.33771529
C       -8.86722073     -13.21455248      10.13494174
C       -3.94410624     -15.44791669      10.33771558
C       -2.72576976     -15.67872200      10.13494181
C        2.68010986     -15.71658321      10.33771777
C        3.88699229     -15.43189131      10.13494439
C        8.84090812     -13.26770720      10.33771956
C        9.82765510     -12.51674425      10.13494574
C       13.47303375      -8.52472816      10.33771843
C       14.06903190      -7.43734541      10.13494420
C       15.77556175      -2.30775319      10.33771676
C       15.87775124      -1.07196482      10.13494287
C       15.35033051       4.30825850      10.33771746
C       14.94104315       5.47877097      10.13494380
C       12.27089486      10.17933259      10.33771658
C       11.42090617      11.08218064      10.13494246
C        7.06971802      14.29031467      10.33771627
C        5.92599145      14.76938162      10.13494248
C        0.64611483      15.93036416      10.33771576
C       -0.59358520      15.90282164      10.13494157
