   89
Geometry Step: 672
    C      7.71432835      4.92207279     64.46667328      4.11058757
    H      6.04931509      5.45063745     63.19476672      0.94468592
    H      8.80705048      5.02235164     64.46570581      0.94463854
    H      7.31715210      6.65989009     35.16585689      0.94460740
    H      8.80202902      5.02786594     59.36922076      0.94466826
    H      8.79197713      5.03891877     49.17626768      0.94466869
    C      7.68918478      4.94969510     38.98428040      4.11058748
    H      7.33703427      6.63766806     55.55004473      0.94467010
    C      7.69169207      4.94694143     41.53250954      4.11066176
    H      7.32949531      6.64594497     47.90532864      0.94467039
    H      7.48391277      3.87424355     36.43449670      0.94395345
    H      6.05181909      5.44791525     65.74293395      0.94482148
    H      7.51179746      3.84361192     64.46571115      0.94463867
    C      7.70176044      4.93587865     51.72547624      4.11066281
    C      7.68666258      4.95247195     36.43616941      4.10979789
    H      6.03424220      5.46719574     47.90532689      0.94467039
    H      7.48665668      3.87123400     38.98331643      0.94463872
    H      6.02152265      5.48080170     35.16586531      0.94460740
    H      8.78694709      5.04444590     44.07978013      0.94466796
    H      7.49169232      3.86569983     44.07977685      0.94466802
    C      7.13450833      5.55920086     55.54907843      4.11066328
    C      7.13953305      5.55367365     60.64555549      4.11066394
    H      8.78190581      5.04997593     38.98331369      0.94463869
    C      7.11388987      5.58185364     35.16309441      4.09707900
    C      7.12445704      5.57024164     45.35611834      4.11066346
    C      7.69673668      4.94139660     46.62899438      4.11066314
    H      8.78946374      5.04167778     46.62802367      0.94466861
    H      8.79448812      5.03615766     51.72450756      0.94466879
    C      7.69924993      4.93863502     49.17723482      4.11066276
    H      6.02920579      5.47273300     42.80885917      0.94467515
    H      7.34456860      6.62938411     63.19475538      0.94468599
    H      8.79700079      5.03340298     54.27274329      0.94466849
    H      6.04429453      5.45615480     58.09828544      0.94467202
    H      7.50928468      3.84636498     61.91746171      0.94466551
    H      7.50677098      3.84912361     59.36922631      0.94466837
    H      7.28950147      5.38889077     70.44604329      0.93327459
    H      6.02417516      5.47828238     37.71241884      0.94482108
    H      7.31940113      6.65701020     37.71241922      0.94482107
    H      7.32445720      6.65148471     42.80885322      0.94467510
    H      6.03172946      5.46996256     45.35709124      0.94467164
    H      7.25268297      5.42933656     33.00677698      0.93327452
    H      7.32193705      6.65425424     40.26061195      0.94468613
    H      7.49672359      3.86016730     49.17626619      0.94466869
    C      7.70679031      4.93035687     56.82195388      4.11066283
    C      7.13702305      5.55643350     58.09731788      4.11066246
    H      7.49923323      3.85741118     51.72451334      0.94466880
    H      8.80453372      5.02511591     61.91746520      0.94466568
    H      7.33954832      6.63490224     58.09828712      0.94467204
    C      7.71325873      4.92324489     69.55703675      4.21889806
    H      8.79564558      5.04023449     69.60320286      0.93152527
    H      7.49507242      3.85664142     69.60320347      0.93152501
    C      7.14204522      5.55091341     63.19380179      4.11067733
    C      7.12696986      5.56747702     47.90435823      4.11066272
    H      7.32698541      6.64870884     45.35709185      0.94467168
    H      7.33200476      6.64318475     50.45356266      0.94467002
    C      7.71180797      4.92483202     61.91843549      4.11066224
    C      7.12193343      5.57301583     42.80787842      4.11066362
    H      6.04680516      5.45339416     60.64651234      0.94467511
    H      7.48916808      3.86847399     41.53153934      0.94466591
    C      7.14650888      5.54601028     68.29033388      4.09707877
    H      7.34977046      6.62405017     68.28947886      0.94460782
    H      7.34205894      6.63214165     60.64652403      0.94467508
    H      8.78441875      5.04722342     41.53153907      0.94466598
    H      6.03926699      5.46168541     53.00180619      0.94466976
    H      8.76046380      5.07888034     33.84594164      0.93152504
    C      7.11941337      5.57578337     40.25963117      4.11067716
    C      7.67816848      4.96179605     33.89396150      4.21889864
    H      6.03675444      5.46443338     50.45356223      0.94467002
    H      7.45988732      3.89529476     33.84594085      0.93152510
    C      7.12948171      5.56471627     50.45259642      4.11066273
    H      7.49421124      3.86292884     46.62802475      0.94466859
    H      6.05413674      5.44496823     68.28948072      0.94460769
    C      7.71679259      4.91936022     67.01479531      4.10979792
    H      8.80930391      5.01988715     67.01455185      0.94395332
    H      7.51403995      3.84113080     67.01454572      0.94395330
    C      7.69422001      4.94416655     44.08074979      4.11066333
    H      7.50174679      3.85465330     54.27274273      0.94466848
    H      8.79951744      5.03064021     56.82098437      0.94466867
    H      8.77917237      5.05300346     36.43449926      0.94395346
    C      7.11694832      5.57848941     37.71134508      4.11120121
    H      6.04178161      5.45891824     55.55004815      0.94467011
    H      7.50426729      3.85188868     56.82097943      0.94466865
    C      7.70930101      4.92759070     59.37019395      4.11066269
    C      7.14459328      5.54812075     65.74208342      4.11120097
    H      7.34704660      6.62664272     65.74293496      0.94482135
    C      7.13199438      5.56196447     53.00083762      4.11066322
    C      7.70427418      4.93312024     54.27371442      4.11066340
    H      7.33452349      6.64043146     53.00180518      0.94466976
    H      6.02668254      5.47550924     40.26060632      0.94468610
