   60
MD iter: 0
    H     -0.16833131      0.00000000      0.00000000      0.81111305      2.83439845     -3.83719679      5.28761574
    C      0.90023902      0.00107910     -0.02555585      4.23914576     -1.27352485     -2.89027699      1.14539436
    C      2.11013550      0.00322644      0.03750304      3.94127228     -1.83248349      0.20430692     -2.22949502
    C      3.48795035      0.00433796      0.11081100      4.00249178     -5.61857665     -3.61946431      2.33808847
    C      4.71534119      0.00375099      0.19490504      4.00056508     -1.19579943     -1.46336411     -1.78514501
    C      6.08424045      0.00314954      0.28636601      3.99951359      2.97441593      3.16838114     -2.38730613
    C      7.31840123      0.00210151      0.36998960      4.00183585      0.41196068     -0.55956077     -3.97739567
    C      8.68385489      0.00137738      0.44540940      3.99956917      0.68180358      0.96769512      2.22547544
    C      9.92165817      0.00180629      0.50285882      4.00151945     -4.67540280      1.57085983      1.97540777
    C     11.28567364      0.00161018      0.54999032      3.99978953      3.03693110     -1.54225758      0.70167468
    C     12.52580335      0.00212924      0.58599587      4.00131564     -4.23948649      2.26516624      3.16863145
    C     13.88973594      0.00195169      0.61894230      4.00007957     -3.88027382      2.58966082     -4.03011888
    C     15.13047626      0.00136033      0.64225555      4.00095132     -3.28323835      0.89699996     -0.86011967
    C     16.49379918      0.00026910      0.66079663      4.00030632      1.12709824      2.06847741      0.43081082
    C     17.73402265     -0.00114176      0.67018929      4.00053958     -0.28753619     -3.28102726      3.23774267
    C     19.09658442     -0.00218251      0.66708111      4.00053804      1.55061638      3.11659791     -0.42652490
    C     20.33666834     -0.00304694      0.65173122      4.00028999     -2.20865424      1.43646830     -0.44626113
    C     21.69986156     -0.00341835      0.63130001      4.00095621      7.24184842     -0.07181564      0.78431052
    C     22.94061501     -0.00384638      0.60880891      4.00007290     -0.32621023     -3.66157678      3.06420140
    C     24.30458827     -0.00360270      0.57869423      4.00130768      3.57608172      3.17989293      0.10975877
    C     25.54499519     -0.00404243      0.54706220      3.99985463     -0.08152297     -2.26242479      2.58023021
    C     26.90932221     -0.00397803      0.50144833      4.00151188      4.41838865     -1.53873118      1.62962892
    C     28.14685656     -0.00393341      0.44584375      3.99951564      0.39179929     -3.08819074     -2.80395630
    C     29.51231501     -0.00330862      0.37296787      4.00184452     -0.29655305      0.08971731     -2.45407484
    C     30.74642846     -0.00233063      0.29116564      3.99952193     -1.22502575      2.75141342     -1.21495372
    C     32.11535821     -0.00148565      0.20063648      4.00051689     -1.37890425      0.49574892      4.34277888
    C     33.34252498     -0.00089267      0.11717876      4.00251372      4.61945863     -1.78624157     -3.94231793
    C     34.72081765     -0.00061666      0.04394833      3.94132951      3.26499246      0.64048325      6.04455301
    C     35.93057981     -0.00032206     -0.02221979      4.23909744     -0.48486621      0.58013985      1.13085901
    H     36.99906784      0.00000000      0.00000000      0.81112106     -6.65286722     -1.16024974     11.38340591
    H     -0.16833131      0.00000000      5.29177249      0.81111305    -10.16705326     -3.01240172     -4.61412800
    C      0.90023902      0.00107910      5.31732834      4.23914576      0.08499474     -0.78325606     -1.00772578
    C      2.11013550      0.00322644      5.25426945      3.94127228     -0.43217006      4.30515079     -2.68438689
    C      3.48795035      0.00433796      5.18096149      4.00249178     -3.69417973     -0.54588665      4.46507719
    C      4.71534119      0.00375099      5.09686745      4.00056508      3.07448643      1.00266273      1.53157787
    C      6.08424045      0.00314954      5.00540648      3.99951359     -1.50745505     -3.75679779     -1.85889672
    C      7.31840123      0.00210151      4.92178289      4.00183585     -4.23640574     -2.19059293      1.35171796
    C      8.68385489      0.00137738      4.84636309      3.99956917      0.14871438      0.44350000     -2.80756604
    C      9.92165817      0.00180629      4.78891367      4.00151945      3.80442304     -6.02182353      1.75520735
    C     11.28567364      0.00161018      4.74178217      3.99978953     -1.05036754     -1.55965583      1.00626918
    C     12.52580335      0.00212924      4.70577662      4.00131564     -0.65528334      1.87297002     -1.54858050
    C     13.88973594      0.00195169      4.67283019      4.00007957     -0.67904846     -0.84868321      4.99392620
    C     15.13047626      0.00136033      4.64951694      4.00095132      0.30275599      3.68881933     -0.23095255
    C     16.49379918      0.00026910      4.63097586      4.00030632      0.85059676     -1.50843551      1.00681846
    C     17.73402265     -0.00114176      4.62158320      4.00053958     -1.36656843      2.01313454      0.02087805
    C     19.09658442     -0.00218251      4.62469138      4.00053804      1.48555388     -1.99770349      3.36682758
    C     20.33666834     -0.00304694      4.64004127      4.00028999     -3.73803195     -1.50429325     -3.05946093
    C     21.69986156     -0.00341835      4.66047248      4.00095621     -0.01953755      1.59552291     -1.40881447
    C     22.94061501     -0.00384638      4.68296358      4.00007290     -0.47815565      0.80108811     -3.34842686
    C     24.30458827     -0.00360270      4.71307826      4.00130768      1.11509285      5.84043315     -4.55276374
    C     25.54499519     -0.00404243      4.74471029      3.99985463      0.03032133     -1.56002999      2.19392291
    C     26.90932221     -0.00397803      4.79032416      4.00151188      4.98153594     -1.17500160     -7.72131318
    C     28.14685656     -0.00393341      4.84592874      3.99951564     -2.19055219      0.61610080      0.31460713
    C     29.51231501     -0.00330862      4.91880462      4.00184452     -1.14248067     -1.67065319     -4.32985347
    C     30.74642846     -0.00233063      5.00060685      3.99952193     -2.12927794      1.04279071     -3.11960729
    C     32.11535821     -0.00148565      5.09113601      4.00051689      0.50223083     -3.24101069      1.27778029
    C     33.34252498     -0.00089267      5.17459373      4.00251372     -0.99716652      2.65429691      2.95121794
    C     34.72081765     -0.00061666      5.24782416      3.94132951      1.36174313      0.80499960      1.66447818
    C     35.93057981     -0.00032206      5.31399228      4.23909744      5.68724700      3.00658135     -1.10251071
    H     36.99906784      0.00000000      5.29177249      0.81112106     12.55156843    -10.83089651     18.07147431
