390
Properties=species:S:1:pos:R:3 pbc="F F F"
C       -0.00000000       1.27475406       3.41398962
C        0.00000000       2.42665554       5.64974605
C        0.00000000       3.67919298       7.79749840
C        0.00000000       4.88972348       9.97300988
C       -0.00000000       6.16675201      12.10114638
C       -0.00000000       7.36796648      14.26795214
C       -0.00000000       8.63257322      16.40593896
C        0.00000000       9.86525113      18.54383764
C        0.00000000      11.06692164      20.72397145
C        0.00000000      12.38436466      22.81023957
C       -0.00000000      13.50954080      25.01596374
C       -0.00000000      14.88418212      27.10456087
C       -0.00000000      16.02402613      29.35159595
C       -0.00000000      -1.27475405       3.41398961
C       -0.00000000       0.00000001       5.61902537
C       -0.00000000       0.00000001       3.08771349
C        0.00000000       1.22569452       7.78613848
C       -0.00000000       1.27415878       4.88696407
C       -0.00000000       2.46194683       9.94029777
C        0.00000000       2.48861300       7.05854191
C        0.00000000       3.69918430      12.09501196
C        0.00000000       3.72612207       9.20385431
C        0.00000000       4.93497291      14.24332771
C        0.00000000       4.96727642      11.36707344
C       -0.00000000       6.17547436      16.39271682
C        0.00000000       6.19817981      13.50574876
C       -0.00000000       7.41070206      18.53977959
C        0.00000000       7.44626678      15.66028453
C        0.00000000       8.65058856      20.68438450
C       -0.00000000       8.67329311      17.80739797
C        0.00000000       9.88921042      22.83505418
C        0.00000000       9.91902492      19.94038169
C       -0.00000000      11.12734771      24.97527004
C        0.00000000      11.16160697      22.10743394
C        0.00000000      12.39478826      27.11777551
C       -0.00000000      12.38374943      24.22007247
C        0.00000000      13.64520177      29.26054396
C       -0.00000000      13.67602351      26.37833574
C        0.00000000      14.88737584      31.47056424
C       -0.00000000      14.88737583      28.47845534
C        0.00000000      16.02402613      30.59742364
C        0.00000000      -2.42665552       5.64974606
C        0.00000000      -1.22569452       7.78613848
C       -0.00000000      -1.27415876       4.88696406
C       -0.00000000      -0.00000000       9.93834189
C        0.00000000       0.00000000       7.04706249
C       -0.00000000       1.23490136      12.08857610
C        0.00000000       1.23617730       9.21420826
C        0.00000000       2.47001648      14.23938709
C       -0.00000000       2.47569268      11.36718587
C        0.00000000       3.70841524      16.38730209
C        0.00000000       3.71051914      13.51954926
C       -0.00000000       4.94424788      18.53504047
C       -0.00000000       4.95040839      15.66686967
C       -0.00000000       6.18298821      20.68284982
C       -0.00000000       6.18635720      17.81545213
C       -0.00000000       7.42317877      22.82790844
C        0.00000000       7.42546096      19.96163606
C       -0.00000000       8.66169435      24.97523581
C       -0.00000000       8.66703986      22.10811987
C        0.00000000       9.91445483      27.11804350
C       -0.00000000       9.90046198      24.25463924
C        0.00000000      11.16083882      29.26181480
C       -0.00000000      11.15980636      26.39454375
C        0.00000000      12.40916191      31.40726658
C        0.00000000      12.40916191      28.54175301
C       -0.00000000      13.67602352      33.57068385
C        0.00000000      13.64520177      30.68847564
C        0.00000000      14.88418215      32.84445873
C       -0.00000000      -3.67919298       7.79749840
C        0.00000000      -2.46194682       9.94029777
C        0.00000000      -2.48861300       7.05854190
C       -0.00000000      -1.23490136      12.08857609
C        0.00000000      -1.23617730       9.21420826
C        0.00000000       0.00000000      14.23759339
C       -0.00000000       0.00000000      11.36889355
C       -0.00000000       1.23593324      16.38656810
C        0.00000000       1.23645067      13.51861638
C       -0.00000000       2.47251162      18.53418535
C        0.00000000       2.47373544      15.66831414
C        0.00000000       3.71039532      20.68106467
C        0.00000000       3.71067704      17.81621155
C       -0.00000000       4.94885520      22.82744008
C       -0.00000000       4.94864694      19.96364814
C       -0.00000000       6.18839453      24.97327571
C       -0.00000000       6.18755278      22.10989085
C       -0.00000000       7.43334099      27.11849173
C       -0.00000000       7.42703546      24.25547634
C       -0.00000000       8.67756039      29.26059879
C       -0.00000000       8.67392240      26.40263324
C        0.00000000       9.91937814      31.40426359
C       -0.00000000       9.91937814      28.54475601
C        0.00000000      11.15980638      33.55447586
C       -0.00000000      11.16083883      30.68720480
C       -0.00000000      12.38374945      35.72894713
C       -0.00000000      12.39478827      32.83124409
C       -0.00000000      13.50954083      34.93305587
C        0.00000000      -4.88972347       9.97300988
C        0.00000000      -3.69918431      12.09501195
C        0.00000000      -3.72612208       9.20385430
C        0.00000000      -2.47001648      14.23938709
C        0.00000000      -2.47569268      11.36718587
C       -0.00000000      -1.23593323      16.38656810
C        0.00000000      -1.23645066      13.51861638
C       -0.00000000      -0.00000000      18.53381370
C       -0.00000000       0.00000000      15.66796565
C        0.00000000       1.23677755      20.68063752
C       -0.00000000       1.23664198      17.81607476
C        0.00000000       2.47444694      22.82692088
C        0.00000000       2.47408726      19.96320695
C       -0.00000000       3.71329153      24.97237759
C        0.00000000       3.71237747      22.11007399
C       -0.00000000       4.95461014      27.11676236
C       -0.00000000       4.95127567      24.25622160
C       -0.00000000       6.19579748      29.26078157
C       -0.00000000       6.19365904      26.40124456
C       -0.00000000       7.43645583      31.40359054
C       -0.00000000       7.43645584      28.54542906
C        0.00000000       8.67392241      33.54638636
C       -0.00000000       8.67756039      30.68842081
C       -0.00000000       9.90046200      35.69438038
C        0.00000000       9.91445484      32.83097610
C       -0.00000000      11.16160698      37.84158568
C        0.00000000      11.12734773      34.97374957
C       -0.00000000      12.38436468      37.13878005
C       -0.00000000      -6.16675199      12.10114640
C       -0.00000000      -4.93497291      14.24332770
C        0.00000000      -4.96727643      11.36707341
C       -0.00000000      -3.70841524      16.38730208
C        0.00000000      -3.71051915      13.51954925
C        0.00000000      -2.47251162      18.53418535
C        0.00000000      -2.47373543      15.66831414
C        0.00000000      -1.23677755      20.68063752
C       -0.00000000      -1.23664197      17.81607476
C        0.00000000      -0.00000000      22.82648660
C        0.00000000       0.00000000      19.96338598
C       -0.00000000       1.23773210      24.97188911
C        0.00000000       1.23737007      22.10979794
C       -0.00000000       2.47696397      27.11658410
C        0.00000000       2.47558076      24.25559229
C       -0.00000000       3.71697643      29.26038669
C       -0.00000000       3.71570944      26.40087708
C        0.00000000       4.95625001      31.40377461
C       -0.00000000       4.95625001      28.54524499
C        0.00000000       6.19365903      33.54777505
C       -0.00000000       6.19579748      30.68823804
C        0.00000000       7.42703546      35.69354328
C        0.00000000       7.43334099      32.83052788
C       -0.00000000       8.66703987      37.84089975
C       -0.00000000       8.66169436      34.97378381
C       -0.00000000       9.91902494      40.00863792
C       -0.00000000       9.88921044      37.11396544
C       -0.00000000      11.06692173      39.22504821
C       -0.00000000      -7.36796649      14.26795216
C       -0.00000000      -6.17547437      16.39271682
C       -0.00000000      -6.19817984      13.50574875
C        0.00000000      -4.94424790      18.53504047
C       -0.00000000      -4.95040839      15.66686967
C        0.00000000      -3.71039533      20.68106468
C        0.00000000      -3.71067703      17.81621155
C        0.00000000      -2.47444695      22.82692089
C        0.00000000      -2.47408726      19.96320696
C        0.00000000      -1.23773211      24.97188911
C        0.00000000      -1.23737007      22.10979794
C       -0.00000000      -0.00000001      27.11626698
C        0.00000000      -0.00000000      24.25557984
C       -0.00000000       1.23883209      29.26028132
C       -0.00000000       1.23844060      26.40060112
C        0.00000000       2.47772717      31.40418503
C        0.00000000       2.47772717      28.54483459
C        0.00000000       3.71570943      33.54814253
C        0.00000000       3.71697642      30.68863293
C        0.00000000       4.95127567      35.69279801
C        0.00000000       4.95461013      32.83225725
C        0.00000000       6.18755278      37.83912877
C        0.00000000       6.18839452      34.97574390
C       -0.00000000       7.42546097      39.98738358
C        0.00000000       7.42317877      37.12111119
C       -0.00000000       8.67329311      42.14162167
C       -0.00000000       8.65058857      39.26463513
C       -0.00000000       9.86525111      41.40518199
C       -0.00000000      -8.63257319      16.40593898
C       -0.00000000      -7.41070206      18.53977960
C       -0.00000000      -7.44626681      15.66028451
C       -0.00000000      -6.18298823      20.68284982
C        0.00000000      -6.18635722      17.81545213
C        0.00000000      -4.94885520      22.82744009
C       -0.00000000      -4.94864694      19.96364815
C        0.00000000      -3.71329153      24.97237760
C        0.00000000      -3.71237747      22.11007400
C       -0.00000000      -2.47696398      27.11658411
C        0.00000000      -2.47558076      24.25559230
C        0.00000000      -1.23883210      29.26028132
C       -0.00000000      -1.23844061      26.40060112
C       -0.00000000      -0.00000001      31.40413118
C        0.00000000      -0.00000001      28.54488845
C        0.00000000       1.23844059      33.54841850
C        0.00000000       1.23883209      30.68873831
C       -0.00000000       2.47558074      35.69342732
C       -0.00000000       2.47696396      32.83243551
C       -0.00000000       3.71237746      37.83894564
C        0.00000000       3.71329152      34.97664202
C        0.00000000       4.94864694      39.98537149
C        0.00000000       4.94885519      37.12157953
C       -0.00000000       6.18635721      42.13356751
C        0.00000000       6.18298823      39.26616982
C        0.00000000       7.44626677      44.28873511
C       -0.00000000       7.41070206      41.40924005
C        0.00000000       8.63257326      43.54308072
C       -0.00000000      -9.86525111      18.54383765
C       -0.00000000      -8.65058856      20.68438451
C       -0.00000000      -8.67329314      17.80739796
C        0.00000000      -7.42317877      22.82790844
C       -0.00000000      -7.42546097      19.96163606
C        0.00000000      -6.18839453      24.97327572
C       -0.00000000      -6.18755278      22.10989086
C        0.00000000      -4.95461014      27.11676237
C        0.00000000      -4.95127567      24.25622161
C       -0.00000000      -3.71697644      29.26038670
C        0.00000000      -3.71570945      26.40087709
C       -0.00000000      -2.47772718      31.40418503
C       -0.00000000      -2.47772718      28.54483460
C        0.00000000      -1.23844061      33.54841851
C       -0.00000000      -1.23883210      30.68873831
C       -0.00000000      -0.00000001      35.69343978
C        0.00000000      -0.00000001      32.83275265
C       -0.00000000       1.23737005      37.83922169
C        0.00000000       1.23773209      34.97713051
C        0.00000000       2.47408724      39.98581268
C        0.00000000       2.47444692      37.12209874
C       -0.00000000       3.71067702      42.13280810
C        0.00000000       3.71039531      39.26795496
C        0.00000000       4.95040836      44.28214997
C        0.00000000       4.94424788      41.41397917
C        0.00000000       6.19817978      46.44327089
C        0.00000000       6.17547435      43.55630282
C        0.00000000       7.36796650      45.68106753
C        0.00000000     -11.06692163      20.72397146
C       -0.00000000      -9.88921041      22.83505419
C       -0.00000000      -9.91902495      19.94038169
C        0.00000000      -8.66169435      24.97523582
C       -0.00000000      -8.66703986      22.10811988
C       -0.00000000      -7.43334099      27.11849174
C       -0.00000000      -7.42703546      24.25547635
C        0.00000000      -6.19579748      29.26078158
C        0.00000000      -6.19365903      26.40124457
C       -0.00000000      -4.95625002      31.40377462
C        0.00000000      -4.95625002      28.54524500
C       -0.00000000      -3.71570945      33.54814254
C       -0.00000000      -3.71697644      30.68863293
C       -0.00000000      -2.47558076      35.69342733
C       -0.00000000      -2.47696398      32.83243552
C        0.00000000      -1.23737007      37.83922169
C       -0.00000000      -1.23773211      34.97713051
C       -0.00000000      -0.00000001      39.98563366
C       -0.00000000      -0.00000001      37.12253303
C       -0.00000000       1.23664196      42.13294488
C        0.00000000       1.23677754      39.26838211
C       -0.00000000       2.47373542      44.28070551
C       -0.00000000       2.47251160      41.41483429
C       -0.00000000       3.71051911      46.42947039
C       -0.00000000       3.70841522      43.56171756
C       -0.00000000       4.96727637      48.58194620
C        0.00000000       4.93497286      45.70569194
C        0.00000000       6.16675194      47.84787327
C        0.00000000     -12.38436464      22.81023958
C        0.00000000     -11.12734770      24.97527006
C       -0.00000000     -11.16160698      22.10743393
C        0.00000000      -9.91445482      27.11804352
C       -0.00000000      -9.90046198      24.25463925
C       -0.00000000      -8.67756039      29.26059880
C       -0.00000000      -8.67392240      26.40263326
C        0.00000000      -7.43645584      31.40359055
C       -0.00000000      -7.43645583      28.54542907
C        0.00000000      -6.19365904      33.54777506
C        0.00000000      -6.19579748      30.68823805
C       -0.00000000      -4.95127568      35.69279802
C       -0.00000000      -4.95461014      32.83225726
C        0.00000000      -3.71237748      37.83894564
C       -0.00000000      -3.71329154      34.97664203
C       -0.00000000      -2.47408727      39.98581269
C       -0.00000000      -2.47444695      37.12209875
C       -0.00000000      -1.23664199      42.13294488
C       -0.00000000      -1.23677756      39.26838211
C       -0.00000000      -0.00000002      44.28105398
C       -0.00000000      -0.00000002      41.41520594
C       -0.00000000       1.23645067      46.43040325
C       -0.00000000       1.23593322      43.56245155
C       -0.00000000       2.47569265      48.58183373
C       -0.00000000       2.47001648      45.70963255
C       -0.00000000       3.72612202      50.74516529
C       -0.00000000       3.69918426      47.85400767
C       -0.00000000       4.88972346      49.97600977
C        0.00000000     -13.50954078      25.01596376
C        0.00000000     -12.39478825      27.11777553
C        0.00000000     -12.38374946      24.22007248
C       -0.00000000     -11.16083881      29.26181481
C       -0.00000000     -11.15980636      26.39454376
C       -0.00000000      -9.91937813      31.40426360
C        0.00000000      -9.91937813      28.54475602
C        0.00000000      -8.67392240      33.54638636
C       -0.00000000      -8.67756039      30.68842082
C       -0.00000000      -7.42703545      35.69354328
C        0.00000000      -7.43334099      32.83052789
C       -0.00000000      -6.18755277      37.83912876
C       -0.00000000      -6.18839453      34.97574391
C        0.00000000      -4.94864693      39.98537149
C       -0.00000000      -4.94885520      37.12157953
C        0.00000000      -3.71067702      42.13280809
C        0.00000000      -3.71039533      39.26795496
C       -0.00000000      -2.47373543      44.28070549
C        0.00000000      -2.47251162      41.41483429
C       -0.00000000      -1.23645067      46.43040324
C       -0.00000000      -1.23593325      43.56245154
C       -0.00000000      -0.00000001      48.58012607
C       -0.00000000      -0.00000001      45.71142624
C        0.00000000       1.23617725      50.73481132
C       -0.00000000       1.23490134      47.86044353
C        0.00000000       2.48861297      52.89047769
C       -0.00000000       2.46194676      50.00872182
C        0.00000000       3.67919297      52.15152122
C        0.00000000     -14.88418210      27.10456088
C        0.00000000     -13.64520175      29.26054398
C        0.00000000     -13.67602352      26.37833575
C       -0.00000000     -12.40916190      31.40726660
C        0.00000000     -12.40916190      28.54175303
C        0.00000000     -11.15980636      33.55447586
C       -0.00000000     -11.16083881      30.68720481
C        0.00000000      -9.90046198      35.69438037
C        0.00000000      -9.91445482      32.83097610
C       -0.00000000      -8.66703985      37.84089975
C        0.00000000      -8.66169433      34.97378380
C        0.00000000      -7.42546095      39.98738356
C       -0.00000000      -7.42317876      37.12111118
C        0.00000000      -6.18635720      42.13356749
C        0.00000000      -6.18298820      39.26616980
C       -0.00000000      -4.95040836      44.28214996
C        0.00000000      -4.94424786      41.41397916
C        0.00000000      -3.71051910      46.42947036
C       -0.00000000      -3.70841521      43.56171755
C       -0.00000000      -2.47569267      48.58183372
C        0.00000000      -2.47001647      45.70963253
C        0.00000000      -1.23617726      50.73481133
C       -0.00000000      -1.23490135      47.86044352
C        0.00000000      -0.00000000      52.90195710
C        0.00000000       0.00000000      50.01067771
C       -0.00000000       1.27415876      55.06205548
C        0.00000000       1.22569447      52.16288109
C        0.00000000       2.42665549      54.29927352
C        0.00000000     -16.02402612      29.35159610
C       -0.00000000     -14.88737583      31.47056427
C        0.00000000     -14.88737582      28.47845534
C       -0.00000000     -13.67602352      33.57068388
C       -0.00000000     -13.64520175      30.68847564
C        0.00000000     -12.38374945      35.72894715
C       -0.00000000     -12.39478825      32.83124410
C       -0.00000000     -11.16160699      37.84158570
C        0.00000000     -11.12734771      34.97374957
C        0.00000000      -9.91902495      40.00863795
C        0.00000000      -9.88921041      37.11396544
C        0.00000000      -8.67329313      42.14162167
C        0.00000000      -8.65058855      39.26463512
C        0.00000000      -7.44626681      44.28873512
C        0.00000000      -7.41070206      41.40924004
C        0.00000000      -6.19817982      46.44327090
C        0.00000000      -6.17547434      43.55630281
C        0.00000000      -4.96727641      48.58194619
C        0.00000000      -4.93497286      45.70569193
C       -0.00000000      -3.72612208      50.74516529
C        0.00000000      -3.69918427      47.85400765
C       -0.00000000      -2.48861300      52.89047768
C       -0.00000000      -2.46194677      50.00872181
C       -0.00000000      -1.27415879      55.06205547
C        0.00000000      -1.22569447      52.16288109
C        0.00000000      -0.00000002      56.86130604
C       -0.00000000      -0.00000001      54.32999420
C        0.00000000       1.27475402      56.53502999
C       -0.00000000     -16.02402613      30.59742352
C       -0.00000000     -14.88418209      32.84445872
C        0.00000000     -13.50954078      34.93305587
C       -0.00000000     -12.38436464      37.13878004
C        0.00000000     -11.06692158      39.22504814
C        0.00000000      -9.86525110      41.40518198
C       -0.00000000      -8.63257316      43.54308065
C        0.00000000      -7.36796637      45.68106745
C        0.00000000      -6.16675197      47.84787326
C       -0.00000000      -4.88972338      49.97600970
C       -0.00000000      -3.67919292      52.15152118
C       -0.00000000      -2.42665555      54.29927353
C        0.00000000      -1.27475403      56.53502997
